20
1 HEAT OF FORMATION = -273177.58018 KCAL = -1142974.19444 KJ
C                0.7275     -0.2166     -1.2446
C                0.1229      0.0265      0.0870
C                0.8887      0.2356      1.1405
C               -1.3925      0.0182      0.0675
H                1.9549      0.2160      1.0491
H                0.4493      0.4532      2.0910
O                0.1011     -0.4145     -2.2594
O                2.0787     -0.1996     -1.2386
C                2.7652     -0.4265     -2.4965
H                2.4952      0.3331     -3.2145
H                2.5081     -1.3956     -2.8960
H                3.8140     -0.3749     -2.2597
H               -1.7132     -0.7424     -0.6328
H               -1.7480      0.9651     -0.3325
C               -2.0676     -0.2452      1.4200
H               -1.6497     -1.1433      1.8570
H               -3.1260     -0.4287      1.2368
N               -1.8409      0.8685      2.3626
H               -2.1253      1.7589      1.9923
H               -2.2422      0.7121      3.2707
