20
1 HEAT OF FORMATION = -273177.58023 KCAL = -1142974.19467 KJ
C               -0.1752      0.0146     -1.4472
C                0.1508     -0.0255     -0.0016
C                1.3779     -0.2963      0.3994
C               -1.0361      0.2829      0.8891
H                2.1481     -0.5061     -0.3134
H                1.6193     -0.2824      1.4412
O               -1.2700      0.2556     -1.8998
O                0.8803     -0.2479     -2.2491
C                0.6625     -0.2316     -3.6835
H                1.6189     -0.4674     -4.1175
H                0.3257      0.7435     -4.0016
H               -0.0775     -0.9671     -3.9601
C               -0.9249     -0.2229      2.3337
H               -1.9162     -0.1555      0.4362
H               -1.2049      1.3574      0.8972
H               -1.9047     -0.1239      2.8004
N                0.1310      0.4935      3.0766
H               -0.6712     -1.2753      2.3233
H                0.0137      1.4920      3.0590
H                0.2529      0.1625      4.0177
