20
2 HEAT OF FORMATION = -273177.41066 KCAL = -1142973.48519 KJ
C                0.1444     -0.7078     -0.9147
C                0.3745     -0.4934      0.5322
C                1.5987     -0.3857      1.0059
C               -0.8839     -0.3821      1.3535
H                2.4517     -0.4571      0.3640
H                1.7767     -0.2117      2.0488
O               -0.9460     -0.7669     -1.4352
O                1.2806     -0.8344     -1.6325
C                1.1613     -1.0335     -3.0653
H                2.1720     -1.1234     -3.4234
H                0.6658     -0.1901     -3.5211
H                0.5974     -1.9291     -3.2745
H               -0.6457     -0.5113      2.4031
H               -1.5747     -1.1647      1.0634
C               -1.5737      0.9828      1.1542
H               -2.5581      0.9484      1.6212
H               -1.7209      1.1332      0.0950
N               -0.7240      2.0642      1.6688
H               -0.9287      2.9679      1.2856
H               -0.6675      2.0947      2.6709
