6
Molecule001 HEAT OF FORMATION = -45.53923 KCAL = -190.53600 KJ
H                0.4810      0.1452     -0.9368
C                0.2415     -0.3764      0.0117
H               -0.8224     -0.6858      0.0488
H                0.5184      0.2357      0.8935
Cl               1.2397     -1.8805      0.0651
Br              -1.6581      2.5617     -0.0823
6
Molecule002 HEAT OF FORMATION = -43.17458 KCAL = -180.64230 KJ
H                0.4785      0.1547     -0.9430
C                0.2171     -0.3394      0.0103
H               -0.8330     -0.6810      0.0486
H                0.5161      0.2460      0.8986
Cl               1.2619     -1.9142      0.0667
Br              -1.6406      2.5338     -0.0811
6
Molecule003 HEAT OF FORMATION = -39.18958 KCAL = -163.96908 KJ
H                0.4764      0.1641     -0.9485
C                0.1931     -0.3021      0.0090
H               -0.8432     -0.6748      0.0487
H                0.5142      0.2559      0.9035
Cl               1.2834     -1.9483      0.0677
Br              -1.6239      2.5053     -0.0804
6
Molecule004 HEAT OF FORMATION = -34.37056 KCAL = -143.80634 KJ
H                0.4751      0.1742     -0.9528
C                0.1698     -0.2641      0.0082
H               -0.8525     -0.6667      0.0491
H                0.5143      0.2648      0.9084
Cl               1.3027     -1.9837      0.0680
Br              -1.6095      2.4755     -0.0809
6
Molecule005 HEAT OF FORMATION = -29.29288 KCAL = -122.56131 KJ
H                0.4761      0.1839     -0.9563
C                0.1475     -0.2251      0.0075
H               -0.8612     -0.6549      0.0499
H                0.5167      0.2726      0.9131
Cl               1.3194     -2.0204      0.0676
Br              -1.5985      2.4439     -0.0818
6
Molecule006 HEAT OF FORMATION = -24.40662 KCAL = -102.11721 KJ
H                0.4745      0.1921     -0.9602
C                0.1234     -0.1865      0.0060
H               -0.8689     -0.6485      0.0495
H                0.5153      0.2814      0.9158
Cl               1.3388     -2.0545      0.0692
Br              -1.5831      2.4159     -0.0804
6
Molecule007 HEAT OF FORMATION = -20.08331 KCAL = -84.02851 KJ
H                0.4694      0.1984     -0.9636
C                0.0966     -0.1485      0.0046
H               -0.8761     -0.6471      0.0493
H                0.5096      0.2890      0.9183
Cl               1.3628     -2.0845      0.0705
Br              -1.5623      2.3927     -0.0791
6
Molecule008 HEAT OF FORMATION = -16.62489 KCAL = -69.55851 KJ
H                0.4667      0.2049     -0.9655
C                0.0708     -0.1088      0.0037
H               -0.8818     -0.6425      0.0498
H                0.5074      0.2949      0.9205
Cl               1.3831     -2.1158      0.0708
Br              -1.5462      2.3674     -0.0792
6
Molecule009 HEAT OF FORMATION = -14.25786 KCAL = -59.65485 KJ
H                0.4640      0.2108     -0.9670
C                0.0449     -0.0684      0.0021
H               -0.8858     -0.6379      0.0494
H                0.5053      0.3002      0.9214
Cl               1.4025     -2.1469      0.0723
Br              -1.5308      2.3424     -0.0782
6
Molecule010 HEAT OF FORMATION = -13.12516 KCAL = -54.91563 KJ
H                0.4613      0.2145     -0.9668
C                0.0184     -0.0283      0.0013
H               -0.8898     -0.6327      0.0496
H                0.5015      0.3058      0.9216
Cl               1.4231     -2.1773      0.0721
Br              -1.5145      2.3180     -0.0778
6
Molecule011 HEAT OF FORMATION = -13.28745 KCAL = -55.59467 KJ
H                0.4570      0.2213     -0.9665
C               -0.0071      0.0114     -0.0003
H               -0.8918     -0.6270      0.0492
H                0.4979      0.3112      0.9205
Cl               1.4426     -2.2093      0.0739
Br              -1.4985      2.2925     -0.0768
6
Molecule012 HEAT OF FORMATION = -14.73305 KCAL = -61.64302 KJ
H                0.4518      0.2274     -0.9651
C               -0.0324      0.0498     -0.0017
H               -0.8949     -0.6193      0.0490
H                0.4925      0.3171      0.9188
Cl               1.4641     -2.2414      0.0749
Br              -1.4810      2.2665     -0.0759
6
Molecule013 HEAT OF FORMATION = -17.38901 KCAL = -72.75558 KJ
H                0.4453      0.2335     -0.9629
C               -0.0572      0.0866     -0.0027
H               -0.8996     -0.6091      0.0486
H                0.4859      0.3234      0.9166
Cl               1.4878     -2.2740      0.0756
Br              -1.4622      2.2395     -0.0753
6
Molecule014 HEAT OF FORMATION = -21.11966 KCAL = -88.36459 KJ
H                0.4379      0.2431     -0.9612
C               -0.0806      0.1228     -0.0044
H               -0.9022     -0.5988      0.0477
H                0.4790      0.3317      0.9131
Cl               1.5098     -2.3093      0.0781
Br              -1.4439      2.2106     -0.0733
6
Molecule015 HEAT OF FORMATION = -25.71350 KCAL = -107.58522 KJ
H                0.4300      0.2522     -0.9584
C               -0.1035      0.1580     -0.0056
H               -0.9060     -0.5868      0.0473
H                0.4709      0.3406      0.9100
Cl               1.5332     -2.3450      0.0791
Br              -1.4246      2.1810     -0.0725
6
Molecule016 HEAT OF FORMATION = -30.87154 KCAL = -129.16645 KJ
H                0.4215      0.2614     -0.9551
C               -0.1263      0.1924     -0.0066
H               -0.9102     -0.5739      0.0469
H                0.4620      0.3499      0.9065
Cl               1.5575     -2.3809      0.0800
Br              -1.4045      2.1511     -0.0718
6
Molecule017 HEAT OF FORMATION = -36.21012 KCAL = -151.50306 KJ
H                0.4126      0.2711     -0.9515
C               -0.1488      0.2266     -0.0076
H               -0.9142     -0.5605      0.0465
H                0.4528      0.3595      0.9028
Cl               1.5819     -2.4174      0.0809
Br              -1.3842      2.1208     -0.0711
6
Molecule018 HEAT OF FORMATION = -41.28364 KCAL = -172.73062 KJ
H                0.4034      0.2800     -0.9473
C               -0.1714      0.2603     -0.0084
H               -0.9189     -0.5464      0.0464
H                0.4428      0.3689      0.8990
Cl               1.6073     -2.4534      0.0811
Br              -1.3632      2.0907     -0.0708
6
Molecule019 HEAT OF FORMATION = -45.62124 KCAL = -190.87913 KJ
H                0.3940      0.2894     -0.9430
C               -0.1938      0.2941     -0.0093
H               -0.9227     -0.5322      0.0461
H                0.4329      0.3783      0.8947
Cl               1.6322     -2.4898      0.0818
Br              -1.3425      2.0603     -0.0703
6
Molecule020 HEAT OF FORMATION = -48.76031 KCAL = -204.01300 KJ
H                0.3845      0.2987     -0.9383
C               -0.2162      0.3280     -0.0103
H               -0.9261     -0.5178      0.0457
H                0.4229      0.3876      0.8901
Cl               1.6570     -2.5263      0.0825
Br              -1.3221      2.0297     -0.0697
6
Molecule021 HEAT OF FORMATION = -50.25636 KCAL = -210.27248 KJ
H                0.3748      0.3084     -0.9335
C               -0.2384      0.3621     -0.0115
H               -0.9284     -0.5038      0.0451
H                0.4128      0.3972      0.8847
Cl               1.6811     -2.5630      0.0836
Br              -1.3020      1.9991     -0.0684
