15
IRC.0980 HEAT OF FORMATION = -121756.78364 KCAL = -509430.02574 KJ
H               -0.3729     -1.3582      0.0134
C               -1.3115     -0.8479      0.0269
H               -1.8715     -1.1506     -0.8505
H               -1.8356     -1.2063      0.9066
C               -1.1067      0.6965      0.0801
H               -1.7595      1.1834     -0.6345
H               -1.3642      1.0665      1.0645
C                0.4616      1.2376     -0.2471
C                1.4051      0.2548      0.3763
H                0.5862      1.2758     -1.3227
H                0.5673      2.2379      0.1528
C                1.5666     -0.9416     -0.1539
H                1.7499      0.4556      1.3748
H                1.2425     -1.1549     -1.1570
H                2.0426     -1.7485      0.3702
15
IRC.0981 HEAT OF FORMATION = -121755.02637 KCAL = -509422.67332 KJ
H               -0.3631     -1.3460      0.0088
C               -1.3085     -0.8492      0.0274
H               -1.8663     -1.1582     -0.8492
H               -1.8218     -1.2188      0.9088
C               -1.1171      0.6932      0.0822
H               -1.7643      1.1799     -0.6374
H               -1.3745      1.0659      1.0654
C                0.4729      1.2441     -0.2484
C                1.4072      0.2573      0.3755
H                0.5913      1.2802     -1.3246
H                0.5760      2.2439      0.1526
C                1.5576     -0.9418     -0.1529
H                1.7464      0.4536      1.3768
H                1.2427     -1.1508     -1.1598
H                2.0215     -1.7532      0.3749
15
IRC.0982 HEAT OF FORMATION = -121753.09968 KCAL = -509414.61203 KJ
H               -0.3536     -1.3332      0.0048
C               -1.3060     -0.8502      0.0278
H               -1.8607     -1.1658     -0.8482
H               -1.8085     -1.2309      0.9106
C               -1.1281      0.6896      0.0846
H               -1.7688      1.1766     -0.6400
H               -1.3847      1.0650      1.0666
C                0.4843      1.2502     -0.2497
C                1.4089      0.2597      0.3746
H                0.5959      1.2838     -1.3266
H                0.5844      2.2496      0.1521
C                1.5486     -0.9420     -0.1519
H                1.7427      0.4519      1.3785
H                1.2437     -1.1471     -1.1627
H                2.0018     -1.7571      0.3794
15
IRC.0983 HEAT OF FORMATION = -121751.01232 KCAL = -509405.87854 KJ
H               -0.3445     -1.3198      0.0012
C               -1.3038     -0.8509      0.0283
H               -1.8549     -1.1733     -0.8475
H               -1.7954     -1.2428      0.9123
C               -1.1396      0.6854      0.0872
H               -1.7727      1.1737     -0.6427
H               -1.3947      1.0638      1.0680
C                0.4959      1.2559     -0.2511
C                1.4103      0.2621      0.3738
H                0.5997      1.2868     -1.3285
H                0.5922      2.2550      0.1517
C                1.5396     -0.9423     -0.1509
H                1.7389      0.4505      1.3802
H                1.2455     -1.1437     -1.1657
H                1.9834     -1.7604      0.3836
15
IRC.0984 HEAT OF FORMATION = -121748.77367 KCAL = -509396.51205 KJ
H               -0.3358     -1.3057     -0.0020
C               -1.3022     -0.8513      0.0288
H               -1.8486     -1.1807     -0.8472
H               -1.7825     -1.2545      0.9139
C               -1.1514      0.6808      0.0899
H               -1.7760      1.1712     -0.6453
H               -1.4042      1.0625      1.0697
C                0.5074      1.2613     -0.2523
C                1.4114      0.2643      0.3731
H                0.6027      1.2890     -1.3303
H                0.5993      2.2601      0.1512
C                1.5305     -0.9426     -0.1498
H                1.7349      0.4495      1.3816
H                1.2482     -1.1406     -1.1688
H                1.9663     -1.7632      0.3875
15
IRC.0985 HEAT OF FORMATION = -121746.39233 KCAL = -509386.54854 KJ
H               -0.3274     -1.2910     -0.0048
C               -1.3009     -0.8515      0.0293
H               -1.8421     -1.1882     -0.8471
H               -1.7696     -1.2658      0.9154
C               -1.1636      0.6757      0.0927
H               -1.7783      1.1691     -0.6480
H               -1.4133      1.0610      1.0715
C                0.5189      1.2662     -0.2535
C                1.4120      0.2666      0.3723
H                0.6046      1.2905     -1.3320
H                0.6054      2.2648      0.1508
C                1.5211     -0.9431     -0.1487
H                1.7307      0.4488      1.3830
H                1.2519     -1.1377     -1.1720
H                1.9506     -1.7654      0.3911
15
IRC.0986 HEAT OF FORMATION = -121743.87517 KCAL = -509376.01671 KJ
H               -0.3193     -1.2757     -0.0072
C               -1.3001     -0.8513      0.0298
H               -1.8352     -1.1956     -0.8473
H               -1.7567     -1.2769      0.9168
C               -1.1760      0.6701      0.0956
H               -1.7796      1.1674     -0.6509
H               -1.4216      1.0594      1.0733
C                0.5303      1.2708     -0.2545
C                1.4122      0.2689      0.3716
H                0.6053      1.2912     -1.3335
H                0.6102      2.2692      0.1506
C                1.5113     -0.9438     -0.1476
H                1.7263      0.4484      1.3841
H                1.2566     -1.1351     -1.1753
H                1.9361     -1.7671      0.3943
15
IRC.0987 HEAT OF FORMATION = -121741.22645 KCAL = -509364.93450 KJ
H               -0.3116     -1.2600     -0.0093
C               -1.2999     -0.8509      0.0304
H               -1.8279     -1.2030     -0.8477
H               -1.7436     -1.2878      0.9183
C               -1.1886      0.6641      0.0986
H               -1.7797      1.1660     -0.6540
H               -1.4290      1.0579      1.0752
C                0.5413      1.2750     -0.2554
C                1.4119      0.2713      0.3709
H                0.6047      1.2912     -1.3347
H                0.6137      2.2731      0.1506
C                1.5012     -0.9446     -0.1465
H                1.7217      0.4485      1.3852
H                1.2626     -1.1326     -1.1788
H                1.9231     -1.7683      0.3972
15
IRC.0988 HEAT OF FORMATION = -121738.44740 KCAL = -509353.30695 KJ
H               -0.3041     -1.2438     -0.0110
C               -1.3003     -0.8501      0.0309
H               -1.8202     -1.2104     -0.8485
H               -1.7304     -1.2983      0.9198
C               -1.2015      0.6577      0.1016
H               -1.7785      1.1651     -0.6573
H               -1.4353      1.0563      1.0771
C                0.5520      1.2788     -0.2561
C                1.4112      0.2738      0.3702
H                0.6025      1.2903     -1.3357
H                0.6157      2.2765      0.1509
C                1.4906     -0.9457     -0.1454
H                1.7169      0.4491      1.3861
H                1.2698     -1.1302     -1.1825
H                1.9115     -1.7691      0.3997
15
IRC.0989 HEAT OF FORMATION = -121735.53589 KCAL = -509341.12521 KJ
H               -0.2970     -1.2275     -0.0122
C               -1.3013     -0.8490      0.0315
H               -1.8120     -1.2177     -0.8495
H               -1.7169     -1.3084      0.9213
C               -1.2145      0.6508      0.1045
H               -1.7758      1.1644     -0.6607
H               -1.4403      1.0548      1.0789
C                0.5623      1.2822     -0.2566
C                1.4098      0.2765      0.3695
H                0.5987      1.2886     -1.3362
H                0.6159      2.2794      0.1514
C                1.4795     -0.9472     -0.1444
H                1.7118      0.4502      1.3869
H                1.2784     -1.1278     -1.1862
H                1.9014     -1.7694      0.4017
15
IRC.0990 HEAT OF FORMATION = -121732.48687 KCAL = -509328.36811 KJ
H               -0.2901     -1.2111     -0.0130
C               -1.3031     -0.8475      0.0321
H               -1.8035     -1.2248     -0.8508
H               -1.7031     -1.3181      0.9229
C               -1.2276      0.6435      0.1073
H               -1.7717      1.1641     -0.6644
H               -1.4440      1.0533      1.0806
C                0.5719      1.2852     -0.2569
C                1.4079      0.2795      0.3689
H                0.5932      1.2862     -1.3363
H                0.6144      2.2817      0.1523
C                1.4679     -0.9489     -0.1435
H                1.7065      0.4517      1.3877
H                1.2883     -1.1255     -1.1901
H                1.8929     -1.7693      0.4032
15
IRC.0991 HEAT OF FORMATION = -121729.29066 KCAL = -509314.99518 KJ
H               -0.2839     -1.1949     -0.0132
C               -1.3057     -0.8455      0.0327
H               -1.7946     -1.2316     -0.8525
H               -1.6889     -1.3274      0.9247
C               -1.2407      0.6359      0.1100
H               -1.7661      1.1640     -0.6682
H               -1.4462      1.0519      1.0821
C                0.5808      1.2876     -0.2570
C                1.4053      0.2830      0.3684
H                0.5859      1.2829     -1.3360
H                0.6110      2.2834      0.1535
C                1.4558     -0.9512     -0.1427
H                1.7011      0.4538      1.3884
H                1.2998     -1.1231     -1.1943
H                1.8862     -1.7689      0.4042
15
IRC.0992 HEAT OF FORMATION = -121725.92921 KCAL = -509300.93090 KJ
H               -0.2775     -1.1794     -0.0127
C               -1.3092     -0.8430      0.0333
H               -1.7852     -1.2381     -0.8547
H               -1.6741     -1.3362      0.9266
C               -1.2537      0.6281      0.1125
H               -1.7592      1.1641     -0.6721
H               -1.4468      1.0507      1.0832
C                0.5888      1.2896     -0.2569
C                1.4020      0.2871      0.3680
H                0.5768      1.2789     -1.3350
H                0.6057      2.2845      0.1551
C                1.4432     -0.9540     -0.1422
H                1.6955      0.4563      1.3891
H                1.3127     -1.1205     -1.1986
H                1.8812     -1.7680      0.4046
15
IRC.0993 HEAT OF FORMATION = -121722.38996 KCAL = -509286.12266 KJ
H               -0.2667     -1.1662     -0.0117
C               -1.3144     -0.8399      0.0339
H               -1.7759     -1.2441     -0.8572
H               -1.6591     -1.3444      0.9285
C               -1.2669      0.6202      0.1147
H               -1.7517      1.1643     -0.6759
H               -1.4466      1.0496      1.0839
C                0.5957      1.2913     -0.2566
C                1.3978      0.2920      0.3676
H                0.5661      1.2746     -1.3336
H                0.5987      2.2849      0.1569
C                1.4299     -0.9572     -0.1419
H                1.6895      0.4591      1.3898
H                1.3262     -1.1177     -1.2029
H                1.8774     -1.7667      0.4045
15
IRC.0994 HEAT OF FORMATION = -121718.64376 KCAL = -509270.44859 KJ
H               -0.2461     -1.1574     -0.0107
C               -1.3217     -0.8360      0.0345
H               -1.7674     -1.2491     -0.8597
H               -1.6446     -1.3515      0.9300
C               -1.2801      0.6127      0.1167
H               -1.7445      1.1647     -0.6795
H               -1.4462      1.0489      1.0843
C                0.6009      1.2927     -0.2562
C                1.3925      0.2976      0.3673
H                0.5539      1.2704     -1.3317
H                0.5903      2.2850      0.1588
C                1.4161     -0.9607     -0.1419
H                1.6830      0.4622      1.3904
H                1.3395     -1.1145     -1.2064
H                1.8743     -1.7650      0.4040
15
IRC.0995 HEAT OF FORMATION = -121714.61464 KCAL = -509253.59077 KJ
H               -0.2150     -1.1531     -0.0098
C               -1.3307     -0.8316      0.0351
H               -1.7600     -1.2532     -0.8621
H               -1.6314     -1.3574      0.9312
C               -1.2930      0.6059      0.1184
H               -1.7383      1.1653     -0.6827
H               -1.4460      1.0485      1.0845
C                0.6044      1.2939     -0.2557
C                1.3865      0.3034      0.3672
H                0.5412      1.2665     -1.3297
H                0.5809      2.2849      0.1607
C                1.4024     -0.9641     -0.1421
H                1.6762      0.4652      1.3909
H                1.3514     -1.1111     -1.2092
H                1.8715     -1.7630      0.4032
15
IRC.0996 HEAT OF FORMATION = -121710.40412 KCAL = -509235.97396 KJ
H               -0.1755     -1.1527     -0.0092
C               -1.3409     -0.8270      0.0357
H               -1.7541     -1.2565     -0.8642
H               -1.6200     -1.3622      0.9319
C               -1.3053      0.5999      0.1198
H               -1.7333      1.1660     -0.6854
H               -1.4462      1.0483      1.0846
C                0.6064      1.2950     -0.2552
C                1.3800      0.3091      0.3671
H                0.5286      1.2631     -1.3276
H                0.5713      2.2846      0.1626
C                1.3891     -0.9672     -0.1424
H                1.6695      0.4681      1.3913
H                1.3617     -1.1078     -1.2113
H                1.8687     -1.7608      0.4022
15
IRC.0997 HEAT OF FORMATION = -121706.41000 KCAL = -509219.26257 KJ
H               -0.1269     -1.1568     -0.0093
C               -1.3521     -0.8223      0.0364
H               -1.7503     -1.2584     -0.8656
H               -1.6113     -1.3651      0.9317
C               -1.3166      0.5953      0.1210
H               -1.7297      1.1661     -0.6865
H               -1.4469      1.0480      1.0835
C                0.6066      1.2960     -0.2546
C                1.3733      0.3146      0.3672
H                0.5166      1.2606     -1.3247
H                0.5619      2.2843      0.1642
C                1.3768     -0.9700     -0.1425
H                1.6631      0.4708      1.3920
H                1.3693     -1.1047     -1.2140
H                1.8663     -1.7585      0.4012
15
IRC.0998 HEAT OF FORMATION = -121703.13883 KCAL = -509205.57602 KJ
H               -0.0755     -1.1629     -0.0099
C               -1.3627     -0.8178      0.0368
H               -1.7477     -1.2614     -0.8694
H               -1.6047     -1.3710      0.9365
C               -1.3265      0.5899      0.1218
H               -1.7301      1.1713     -0.6953
H               -1.4482      1.0513      1.0904
C                0.6068      1.2964     -0.2537
C                1.3671      0.3194      0.3674
H                0.5049      1.2578     -1.3286
H                0.5532      2.2851      0.1662
C                1.3658     -0.9731     -0.1435
H                1.6568      0.4725      1.3900
H                1.3763     -1.1013     -1.2083
H                1.8645     -1.7563      0.3997
15
IRC.1000 HEAT OF FORMATION = -121700.87962 KCAL = -509196.12349 KJ
H                0.0167     -1.1749     -0.0116
C               -1.3837     -0.8097      0.0383
H               -1.7420     -1.2635     -0.8700
H               -1.5905     -1.3739      0.9327
C               -1.3460      0.5839      0.1235
H               -1.7244      1.1691     -0.6927
H               -1.4505      1.0489      1.0848
C                0.6037      1.2983     -0.2528
C                1.3540      0.3288      0.3680
H                0.4840      1.2545     -1.3200
H                0.5351      2.2842      0.1686
C                1.3457     -0.9774     -0.1436
H                1.6463      0.4784      1.3924
H                1.3889     -1.0956     -1.2156
H                1.8626     -1.7511      0.3980
15
IRC.1002 HEAT OF FORMATION = -121702.82596 KCAL = -509204.26698 KJ
H                0.1068     -1.1906     -0.0141
C               -1.4048     -0.8015      0.0393
H               -1.7358     -1.2642     -0.8716
H               -1.5764     -1.3747      0.9297
C               -1.3658      0.5775      0.1248
H               -1.7183      1.1657     -0.6896
H               -1.4509      1.0478      1.0792
C                0.6013      1.3002     -0.2525
C                1.3411      0.3382      0.3680
H                0.4618      1.2501     -1.3103
H                0.5171      2.2840      0.1713
C                1.3264     -0.9814     -0.1443
H                1.6346      0.4843      1.3952
H                1.4006     -1.0901     -1.2207
H                1.8623     -1.7452      0.3957
15
IRC.1003 HEAT OF FORMATION = -121705.16761 KCAL = -509214.06442 KJ
H                0.1504     -1.2022     -0.0140
C               -1.4168     -0.7964      0.0404
H               -1.7323     -1.2668     -0.8750
H               -1.5679     -1.3800      0.9342
C               -1.3767      0.5720      0.1265
H               -1.7185      1.1727     -0.7000
H               -1.4505      1.0508      1.0864
C                0.6025      1.3016     -0.2508
C                1.3350      0.3437      0.3692
H                0.4488      1.2469     -1.3156
H                0.5084      2.2837      0.1734
C                1.3168     -0.9847     -0.1447
H                1.6287      0.4868      1.3924
H                1.4087     -1.0865     -1.2165
H                1.8635     -1.7414      0.3942
15
IRC.1004 HEAT OF FORMATION = -121707.74890 KCAL = -509224.86452 KJ
H                0.1857     -1.2167     -0.0143
C               -1.4309     -0.7910      0.0412
H               -1.7272     -1.2673     -0.8762
H               -1.5574     -1.3812      0.9320
C               -1.3899      0.5678      0.1275
H               -1.7135      1.1715     -0.6991
H               -1.4495      1.0499      1.0838
C                0.6040      1.3040     -0.2510
C                1.3281      0.3499      0.3695
H                0.4360      1.2442     -1.3102
H                0.4989      2.2843      0.1747
C                1.3073     -0.9875     -0.1455
H                1.6238      0.4914      1.3936
H                1.4180     -1.0825     -1.2184
H                1.8667     -1.7368      0.3923
15
IRC.1005 HEAT OF FORMATION = -121710.31825 KCAL = -509235.61466 KJ
H                0.2094     -1.2346     -0.0142
C               -1.4454     -0.7857      0.0422
H               -1.7214     -1.2682     -0.8782
H               -1.5459     -1.3834      0.9313
C               -1.4040      0.5633      0.1290
H               -1.7086      1.1721     -0.7009
H               -1.4476      1.0497      1.0838
C                0.6073      1.3072     -0.2511
C                1.3218      0.3561      0.3701
H                0.4229      1.2409     -1.3069
H                0.4903      2.2855      0.1761
C                1.2998     -0.9903     -0.1465
H                1.6197      0.4967      1.3937
H                1.4286     -1.0784     -1.2186
H                1.8731     -1.7310      0.3901
15
IRC.1006 HEAT OF FORMATION = -121712.79473 KCAL = -509245.97627 KJ
H                0.2240     -1.2547     -0.0139
C               -1.4602     -0.7809      0.0432
H               -1.7154     -1.2688     -0.8800
H               -1.5342     -1.3853      0.9301
C               -1.4185      0.5592      0.1305
H               -1.7036      1.1725     -0.7025
H               -1.4454      1.0492      1.0838
C                0.6118      1.3112     -0.2515
C                1.3162      0.3618      0.3710
H                0.4106      1.2377     -1.3034
H                0.4832      2.2872      0.1771
C                1.2942     -0.9929     -0.1475
H                1.6165      0.5023      1.3938
H                1.4394     -1.0741     -1.2183
H                1.8815     -1.7244      0.3877
15
IRC.1007 HEAT OF FORMATION = -121715.13644 KCAL = -509255.77396 KJ
H                0.2337     -1.2754     -0.0140
C               -1.4748     -0.7771      0.0442
H               -1.7101     -1.2693     -0.8816
H               -1.5237     -1.3870      0.9287
C               -1.4334      0.5556      0.1323
H               -1.6994      1.1727     -0.7037
H               -1.4436      1.0484      1.0840
C                0.6173      1.3157     -0.2523
C                1.3110      0.3668      0.3720
H                0.3995      1.2346     -1.2999
H                0.4780      2.2896      0.1775
C                1.2902     -0.9954     -0.1484
H                1.6142      0.5080      1.3938
H                1.4496     -1.0701     -1.2178
H                1.8916     -1.7172      0.3853
15
IRC.1008 HEAT OF FORMATION = -121717.32872 KCAL = -509264.94648 KJ
H                0.2423     -1.2957     -0.0145
C               -1.4894     -0.7743      0.0453
H               -1.7063     -1.2697     -0.8831
H               -1.5151     -1.3887      0.9275
C               -1.4487      0.5525      0.1342
H               -1.6967      1.1728     -0.7046
H               -1.4428      1.0473      1.0846
C                0.6234      1.3207     -0.2534
C                1.3063      0.3710      0.3732
H                0.3900      1.2320     -1.2968
H                0.4751      2.2927      0.1774
C                1.2876     -0.9978     -0.1492
H                1.6127      0.5132      1.3939
H                1.4590     -1.0662     -1.2173
H                1.9028     -1.7098      0.3828
15
IRC.1009 HEAT OF FORMATION = -121719.37760 KCAL = -509273.51898 KJ
H                0.2506     -1.3153     -0.0152
C               -1.5038     -0.7724      0.0464
H               -1.7043     -1.2702     -0.8844
H               -1.5087     -1.3904      0.9263
C               -1.4641      0.5498      0.1363
H               -1.6958      1.1728     -0.7051
H               -1.4432      1.0461      1.0855
C                0.6301      1.3259     -0.2547
C                1.3020      0.3744      0.3745
H                0.3821      1.2301     -1.2940
H                0.4747      2.2965      0.1767
C                1.2862     -1.0002     -0.1499
H                1.6118      0.5179      1.3940
H                1.4675     -1.0626     -1.2168
H                1.9148     -1.7023      0.3804
15
IRC.1010 HEAT OF FORMATION = -121721.29348 KCAL = -509281.53502 KJ
H                0.2587     -1.3341     -0.0158
C               -1.5179     -0.7715      0.0475
H               -1.7039     -1.2706     -0.8854
H               -1.5044     -1.3922      0.9251
C               -1.4796      0.5475      0.1384
H               -1.6965      1.1726     -0.7050
H               -1.4449      1.0446      1.0866
C                0.6373      1.3313     -0.2563
C                1.2982      0.3770      0.3758
H                0.3762      1.2289     -1.2915
H                0.4769      2.3008      0.1754
C                1.2859     -1.0024     -0.1505
H                1.6115      0.5219      1.3940
H                1.4753     -1.0590     -1.2163
H                1.9273     -1.6949      0.3778
15
IRC.1011 HEAT OF FORMATION = -121723.08773 KCAL = -509289.04214 KJ
H                0.2670     -1.3519     -0.0162
C               -1.5316     -0.7711      0.0486
H               -1.7054     -1.2711     -0.8862
H               -1.5024     -1.3941      0.9241
C               -1.4949      0.5454      0.1406
H               -1.6991      1.1723     -0.7044
H               -1.4480      1.0429      1.0879
C                0.6449      1.3367     -0.2580
C                1.2948      0.3792      0.3771
H                0.3722      1.2287     -1.2895
H                0.4817      2.3057      0.1737
C                1.2868     -1.0045     -0.1510
H                1.6115      0.5252      1.3941
H                1.4824     -1.0556     -1.2160
H                1.9401     -1.6877      0.3753
15
IRC.1012 HEAT OF FORMATION = -121724.77228 KCAL = -509296.09029 KJ
H                0.2754     -1.3686     -0.0163
C               -1.5448     -0.7714      0.0496
H               -1.7085     -1.2716     -0.8866
H               -1.5025     -1.3959      0.9230
C               -1.5100      0.5434      0.1427
H               -1.7033      1.1719     -0.7035
H               -1.4523      1.0411      1.0893
C                0.6529      1.3419     -0.2598
C                1.2919      0.3808      0.3783
H                0.3699      1.2294     -1.2880
H                0.4888      2.3109      0.1715
C                1.2886     -1.0064     -0.1514
H                1.6118      0.5277      1.3942
H                1.4888     -1.0524     -1.2158
H                1.9531     -1.6807      0.3727
15
IRC.1013 HEAT OF FORMATION = -121726.35606 KCAL = -509302.71682 KJ
H                0.2843     -1.3840     -0.0159
C               -1.5576     -0.7720      0.0505
H               -1.7132     -1.2723     -0.8871
H               -1.5043     -1.3981      0.9223
C               -1.5248      0.5415      0.1449
H               -1.7088      1.1714     -0.7024
H               -1.4578      1.0391      1.0909
C                0.6612      1.3470     -0.2617
C                1.2894      0.3820      0.3794
H                0.3693      1.2310     -1.2871
H                0.4980      2.3164      0.1692
C                1.2913     -1.0082     -0.1517
H                1.6122      0.5296      1.3943
H                1.4947     -1.0493     -1.2157
H                1.9663     -1.6742      0.3701
15
IRC.1014 HEAT OF FORMATION = -121727.84810 KCAL = -509308.95950 KJ
H                0.2931     -1.3984     -0.0151
C               -1.5701     -0.7730      0.0514
H               -1.7190     -1.2729     -0.8871
H               -1.5077     -1.4000      0.9212
C               -1.5394      0.5396      0.1470
H               -1.7154      1.1706     -0.7007
H               -1.4643      1.0369      1.0922
C                0.6697      1.3519     -0.2637
C                1.2874      0.3829      0.3803
H                0.3703      1.2333     -1.2862
H                0.5088      2.3219      0.1667
C                1.2946     -1.0098     -0.1520
H                1.6126      0.5309      1.3945
H                1.5000     -1.0465     -1.2157
H                1.9794     -1.6676      0.3673
15
IRC.1015 HEAT OF FORMATION = -121729.25177 KCAL = -509314.83245 KJ
H                0.3023     -1.4112     -0.0136
C               -1.5822     -0.7740      0.0523
H               -1.7263     -1.2739     -0.8875
H               -1.5127     -1.4029      0.9214
C               -1.5535      0.5376      0.1490
H               -1.7233      1.1704     -0.6998
H               -1.4719      1.0351      1.0945
C                0.6785      1.3566     -0.2656
C                1.2860      0.3836      0.3811
H                0.3726      1.2365     -1.2871
H                0.5214      2.3273      0.1642
C                1.2986     -1.0111     -0.1523
H                1.6128      0.5317      1.3947
H                1.5046     -1.0438     -1.2161
H                1.9931     -1.6618      0.3649
15
IRC.1016 HEAT OF FORMATION = -121730.57510 KCAL = -509320.36929 KJ
H                0.3119     -1.4236     -0.0119
C               -1.5941     -0.7756      0.0531
H               -1.7338     -1.2744     -0.8869
H               -1.5183     -1.4042      0.9191
C               -1.5675      0.5358      0.1510
H               -1.7311      1.1684     -0.6968
H               -1.4800      1.0320      1.0948
C                0.6873      1.3610     -0.2678
C                1.2848      0.3841      0.3817
H                0.3763      1.2401     -1.2855
H                0.5343      2.3330      0.1618
C                1.3029     -1.0125     -0.1525
H                1.6130      0.5323      1.3948
H                1.5089     -1.0414     -1.2163
H                2.0053     -1.6549      0.3613
15
IRC.1017 HEAT OF FORMATION = -121731.82072 KCAL = -509325.58093 KJ
H                0.3212     -1.4350     -0.0097
C               -1.6058     -0.7768      0.0539
H               -1.7422     -1.2757     -0.8877
H               -1.5246     -1.4078      0.9205
C               -1.5812      0.5337      0.1529
H               -1.7400      1.1687     -0.6967
H               -1.4886      1.0305      1.0980
C                0.6964      1.3654     -0.2695
C                1.2840      0.3846      0.3822
H                0.3800      1.2440     -1.2880
H                0.5481      2.3380      0.1594
C                1.3075     -1.0135     -0.1527
H                1.6131      0.5327      1.3953
H                1.5128     -1.0390     -1.2169
H                2.0195     -1.6498      0.3592
15
IRC.1018 HEAT OF FORMATION = -121732.99163 KCAL = -509330.48001 KJ
H                0.3310     -1.4456     -0.0070
C               -1.6173     -0.7788      0.0546
H               -1.7509     -1.2763     -0.8867
H               -1.5320     -1.4089      0.9178
C               -1.5947      0.5319      0.1548
H               -1.7487      1.1661     -0.6932
H               -1.4979      1.0271      1.0978
C                0.7054      1.3694     -0.2718
C                1.2837      0.3849      0.3826
H                0.3861      1.2486     -1.2865
H                0.5623      2.3433      0.1573
C                1.3125     -1.0146     -0.1530
H                1.6130      0.5326      1.3955
H                1.5162     -1.0369     -1.2173
H                2.0313     -1.6428      0.3550
15
IRC.1019 HEAT OF FORMATION = -121734.08634 KCAL = -509335.06030 KJ
H                0.3403     -1.4553     -0.0038
C               -1.6288     -0.7800      0.0552
H               -1.7603     -1.2780     -0.8881
H               -1.5394     -1.4136      0.9208
C               -1.6079      0.5297      0.1566
H               -1.7586      1.1672     -0.6944
H               -1.5072      1.0262      1.1022
C                0.7147      1.3735     -0.2733
C                1.2836      0.3853      0.3828
H                0.3910      1.2531     -1.2912
H                0.5768      2.3476      0.1552
C                1.3175     -1.0150     -0.1532
H                1.6128      0.5327      1.3962
H                1.5191     -1.0348     -1.2183
H                2.0463     -1.6387      0.3534
15
IRC.1020 HEAT OF FORMATION = -121735.09494 KCAL = -509339.28027 KJ
H                0.3506     -1.4644     -0.0004
C               -1.6399     -0.7825      0.0560
H               -1.7693     -1.2781     -0.8857
H               -1.5481     -1.4127      0.9152
C               -1.6207      0.5281      0.1582
H               -1.7672      1.1624     -0.6883
H               -1.5174      1.0213      1.0995
C                0.7238      1.3770     -0.2758
C                1.2842      0.3854      0.3829
H                0.3998      1.2584     -1.2870
H                0.5911      2.3528      0.1536
C                1.3231     -1.0161     -0.1534
H                1.6125      0.5321      1.3962
H                1.5216     -1.0333     -1.2186
H                2.0560     -1.6304      0.3476
