23
P1 HEAT OF FORMATION = -287071.47722 KCAL = -1201106.21891 KJ
H               -3.0261     -0.5314     -0.7317
C               -2.1537     -0.7347     -0.1250
C                0.3399     -1.1620     -0.2636
C               -0.7378      0.0590      1.7971
C                0.5126     -0.3597      1.0460
C               -1.9098      0.4122      0.8695
C               -0.9337     -0.8731     -1.0574
O                1.2340      0.8717      0.4925
H               -1.6994      1.3298      0.3313
H               -0.8091      0.0611     -1.5909
H               -2.3398     -1.6612      0.4084
H                0.5679     -2.2053     -0.1511
H               -0.4760      0.8828      2.4484
H                1.2475     -0.8091      1.6939
H               -2.7914      0.5841      1.4731
H               -1.0809     -1.6523     -1.7928
H               -1.0188     -0.7776      2.4284
C                1.8040      0.5778     -0.6106
O                1.5000     -0.5731     -1.0731
C                2.7567      1.4827     -1.2833
H                2.5399      2.5059     -1.0162
H                2.7133      1.3317     -2.3513
H                3.7608      1.2406     -0.9418
23
P2 HEAT OF FORMATION = -287071.47729 KCAL = -1201106.21920 KJ
H               -3.0262     -0.5309     -0.7318
C               -2.1538     -0.7346     -0.1250
C                0.3398     -1.1620     -0.2635
C               -0.7377      0.0588      1.7972
C                0.5126     -0.3597      1.0460
C               -1.9098      0.4122      0.8697
C               -0.9337     -0.8729     -1.0573
O                1.2341      0.8716      0.4925
H               -1.6994      1.3299      0.3316
H               -0.8090      0.0614     -1.5908
H               -2.3401     -1.6613      0.4083
H                0.5676     -2.2053     -0.1511
H               -0.4759      0.8826      2.4485
H                1.2475     -0.8093      1.6938
H               -2.7914      0.5840      1.4733
H               -1.0810     -1.6520     -1.7928
H               -1.0186     -0.7780      2.4282
C                1.8042      0.5776     -0.6107
O                1.5000     -0.5731     -1.0730
C                2.7568      1.4827     -1.2835
H                2.5387      2.5061     -1.0180
H                2.7146      1.3303     -2.3513
H                3.7606      1.2420     -0.9403
23
P3 HEAT OF FORMATION = -287071.47737 KCAL = -1201106.21954 KJ
H               -3.0263     -0.5306     -0.7315
C               -2.1539     -0.7345     -0.1249
C                0.3396     -1.1619     -0.2637
C               -0.7375      0.0586      1.7973
C                0.5127     -0.3597      1.0458
C               -1.9098      0.4121      0.8700
C               -0.9338     -0.8725     -1.0573
O                1.2341      0.8716      0.4923
H               -1.6996      1.3299      0.3321
H               -0.8092      0.0619     -1.5905
H               -2.3401     -1.6613      0.4082
H                0.5673     -2.2053     -0.1514
H               -0.4757      0.8823      2.4488
H                1.2476     -0.8094      1.6935
H               -2.7913      0.5837      1.4738
H               -1.0812     -1.6514     -1.7930
H               -1.0183     -0.7784      2.4281
C                1.8042      0.5775     -0.6109
O                1.4999     -0.5732     -1.0733
C                2.7570      1.4825     -1.2836
H                2.5365      2.5061     -1.0210
H                2.7176      1.3276     -2.3512
H                3.7603      1.2445     -0.9373
23
P4 HEAT OF FORMATION = -287071.47759 KCAL = -1201106.22049 KJ
H               -3.0268     -0.5302     -0.7308
C               -2.1541     -0.7342     -0.1246
C                0.3391     -1.1619     -0.2643
C               -0.7370      0.0582      1.7973
C                0.5129     -0.3600      1.0453
C               -1.9098      0.4120      0.8707
C               -0.9344     -0.8717     -1.0576
O                1.2344      0.8712      0.4919
H               -1.6999      1.3300      0.3331
H               -0.8097      0.0632     -1.5900
H               -2.3399     -1.6612      0.4081
H                0.5664     -2.2053     -0.1524
H               -0.4749      0.8818      2.4489
H                1.2479     -0.8100      1.6927
H               -2.7910      0.5832      1.4749
H               -1.0820     -1.6500     -1.7938
H               -1.0176     -0.7788      2.4282
C                1.8042      0.5771     -0.6115
O                1.4995     -0.5733     -1.0740
C                2.7573      1.4820     -1.2838
H                2.5311      2.5063     -1.0281
H                2.7249      1.3212     -2.3506
H                3.7595      1.2507     -0.9296
23
P5 HEAT OF FORMATION = -287071.47782 KCAL = -1201106.22143 KJ
H               -3.0273     -0.5295     -0.7300
C               -2.1544     -0.7338     -0.1242
C                0.3387     -1.1618     -0.2651
C               -0.7365      0.0577      1.7974
C                0.5131     -0.3606      1.0448
C               -1.9094      0.4121      0.8713
C               -0.9351     -0.8712     -1.0577
O                1.2348      0.8706      0.4918
H               -1.6994      1.3302      0.3338
H               -0.8105      0.0637     -1.5901
H               -2.3402     -1.6609      0.4083
H                0.5659     -2.2054     -0.1538
H               -0.4739      0.8810      2.4492
H                1.2482     -0.8112      1.6918
H               -2.7904      0.5834      1.4759
H               -1.0831     -1.6493     -1.7940
H               -1.0170     -0.7794      2.4282
C                1.8042      0.5767     -0.6120
O                1.4988     -0.5732     -1.0751
C                2.7575      1.4818     -1.2838
H                2.5249      2.5066     -1.0356
H                2.7327      1.3146     -2.3498
H                3.7583      1.2578     -0.9212
23
P6 HEAT OF FORMATION = -287071.47801 KCAL = -1201106.22222 KJ
H               -3.0277     -0.5287     -0.7293
C               -2.1546     -0.7333     -0.1239
C                0.3383     -1.1620     -0.2658
C               -0.7359      0.0573      1.7975
C                0.5133     -0.3614      1.0445
C               -1.9089      0.4123      0.8718
C               -0.9357     -0.8709     -1.0579
O                1.2353      0.8699      0.4918
H               -1.6988      1.3304      0.3344
H               -0.8110      0.0641     -1.5901
H               -2.3404     -1.6605      0.4085
H                0.5655     -2.2056     -0.1550
H               -0.4728      0.8804      2.4493
H                1.2484     -0.8124      1.6911
H               -2.7897      0.5838      1.4766
H               -1.0842     -1.6488     -1.7944
H               -1.0167     -0.7798      2.4282
C                1.8042      0.5764     -0.6124
O                1.4983     -0.5731     -1.0759
C                2.7575      1.4818     -1.2838
H                2.5192      2.5068     -1.0423
H                2.7393      1.3089     -2.3489
H                3.7571      1.2644     -0.9141
23
P7 HEAT OF FORMATION = -287071.47816 KCAL = -1201106.22285 KJ
H               -3.0278     -0.5273     -0.7290
C               -2.1548     -0.7326     -0.1238
C                0.3381     -1.1622     -0.2663
C               -0.7354      0.0567      1.7977
C                0.5136     -0.3620      1.0442
C               -1.9083      0.4125      0.8722
C               -0.9361     -0.8707     -1.0580
O                1.2356      0.8692      0.4919
H               -1.6977      1.3307      0.3351
H               -0.8112      0.0643     -1.5902
H               -2.3411     -1.6598      0.4084
H                0.5652     -2.2059     -0.1558
H               -0.4719      0.8793      2.4498
H                1.2486     -0.8136      1.6905
H               -2.7890      0.5844      1.4772
H               -1.0851     -1.6485     -1.7944
H               -1.0164     -0.7806      2.4280
C                1.8042      0.5761     -0.6127
O                1.4979     -0.5732     -1.0764
C                2.7572      1.4818     -1.2839
H                2.5133      2.5071     -1.0490
H                2.7454      1.3033     -2.3482
H                3.7557      1.2710     -0.9072
23
P8 HEAT OF FORMATION = -287071.47825 KCAL = -1201106.22322 KJ
H               -3.0277     -0.5257     -0.7290
C               -2.1549     -0.7318     -0.1237
C                0.3380     -1.1625     -0.2666
C               -0.7349      0.0560      1.7979
C                0.5138     -0.3628      1.0441
C               -1.9076      0.4130      0.8725
C               -0.9364     -0.8707     -1.0580
O                1.2358      0.8686      0.4921
H               -1.6963      1.3312      0.3356
H               -0.8112      0.0641     -1.5906
H               -2.3420     -1.6590      0.4083
H                0.5651     -2.2062     -0.1565
H               -0.4710      0.8781      2.4505
H                1.2489     -0.8147      1.6901
H               -2.7881      0.5853      1.4775
H               -1.0859     -1.6487     -1.7942
H               -1.0164     -0.7816      2.4276
C                1.8040      0.5758     -0.6128
O                1.4977     -0.5733     -1.0768
C                2.7568      1.4819     -1.2840
H                2.5081      2.5073     -1.0549
H                2.7503      1.2987     -2.3473
H                3.7541      1.2770     -0.9017
23
P9 HEAT OF FORMATION = -287071.47833 KCAL = -1201106.22359 KJ
H               -3.0281     -0.5251     -0.7284
C               -2.1551     -0.7315     -0.1235
C                0.3376     -1.1625     -0.2671
C               -0.7345      0.0556      1.7980
C                0.5140     -0.3632      1.0438
C               -1.9074      0.4130      0.8730
C               -0.9368     -0.8702     -1.0582
O                1.2361      0.8681      0.4919
H               -1.6961      1.3313      0.3364
H               -0.8115      0.0648     -1.5903
H               -2.3421     -1.6588      0.4083
H                0.5645     -2.2063     -0.1574
H               -0.4703      0.8775      2.4506
H                1.2491     -0.8155      1.6895
H               -2.7877      0.5852      1.4783
H               -1.0866     -1.6478     -1.7946
H               -1.0159     -0.7821      2.4276
C                1.8041      0.5755     -0.6132
O                1.4973     -0.5733     -1.0775
C                2.7569      1.4817     -1.2842
H                2.5032      2.5075     -1.0610
H                2.7563      1.2935     -2.3467
H                3.7531      1.2826     -0.8953
23
P10 HEAT OF FORMATION = -287071.47836 KCAL = -1201106.22369 KJ
H               -3.0282     -0.5245     -0.7282
C               -2.1552     -0.7311     -0.1234
C                0.3374     -1.1626     -0.2674
C               -0.7342      0.0553      1.7980
C                0.5141     -0.3635      1.0436
C               -1.9071      0.4131      0.8733
C               -0.9371     -0.8699     -1.0582
O                1.2363      0.8679      0.4919
H               -1.6958      1.3314      0.3368
H               -0.8118      0.0651     -1.5903
H               -2.3423     -1.6585      0.4083
H                0.5643     -2.2064     -0.1580
H               -0.4698      0.8770      2.4509
H                1.2492     -0.8160      1.6891
H               -2.7874      0.5854      1.4787
H               -1.0871     -1.6475     -1.7948
H               -1.0157     -0.7825      2.4276
C                1.8041      0.5753     -0.6134
O                1.4970     -0.5733     -1.0778
C                2.7569      1.4816     -1.2842
H                2.5001      2.5075     -1.0650
H                2.7601      1.2901     -2.3461
H                3.7523      1.2864     -0.8914
23
P11 HEAT OF FORMATION = -287071.47838 KCAL = -1201106.22377 KJ
H               -3.0284     -0.5243     -0.7278
C               -2.1553     -0.7310     -0.1233
C                0.3372     -1.1626     -0.2676
C               -0.7340      0.0551      1.7981
C                0.5142     -0.3636      1.0434
C               -1.9072      0.4129      0.8737
C               -0.9373     -0.8694     -1.0583
O                1.2363      0.8677      0.4916
H               -1.6960      1.3315      0.3374
H               -0.8119      0.0659     -1.5900
H               -2.3422     -1.6585      0.4081
H                0.5638     -2.2065     -0.1584
H               -0.4695      0.8767      2.4510
H                1.2494     -0.8163      1.6887
H               -2.7873      0.5850      1.4794
H               -1.0874     -1.6465     -1.7952
H               -1.0153     -0.7828      2.4276
C                1.8041      0.5750     -0.6137
O                1.4970     -0.5735     -1.0781
C                2.7571      1.4813     -1.2844
H                2.4974      2.5072     -1.0689
H                2.7638      1.2870     -2.3456
H                3.7516      1.2897     -0.8878
23
P12 HEAT OF FORMATION = -287071.47838 KCAL = -1201106.22380 KJ
H               -3.0287     -0.5238     -0.7274
C               -2.1554     -0.7307     -0.1231
C                0.3369     -1.1625     -0.2680
C               -0.7337      0.0548      1.7982
C                0.5143     -0.3639      1.0432
C               -1.9070      0.4129      0.8741
C               -0.9376     -0.8690     -1.0584
O                1.2365      0.8674      0.4916
H               -1.6959      1.3316      0.3380
H               -0.8123      0.0664     -1.5898
H               -2.3423     -1.6584      0.4081
H                0.5633     -2.2065     -0.1590
H               -0.4690      0.8763      2.4512
H                1.2495     -0.8168      1.6883
H               -2.7870      0.5849      1.4800
H               -1.0879     -1.6459     -1.7955
H               -1.0150     -0.7832      2.4276
C                1.8042      0.5747     -0.6140
O                1.4967     -0.5734     -1.0786
C                2.7572      1.4811     -1.2845
H                2.4940      2.5072     -1.0735
H                2.7683      1.2831     -2.3450
H                3.7507      1.2939     -0.8832
23
P13 HEAT OF FORMATION = -287071.47836 KCAL = -1201106.22369 KJ
H               -3.0289     -0.5234     -0.7271
C               -2.1555     -0.7305     -0.1229
C                0.3367     -1.1625     -0.2683
C               -0.7335      0.0545      1.7983
C                0.5144     -0.3641      1.0430
C               -1.9069      0.4129      0.8744
C               -0.9378     -0.8686     -1.0585
O                1.2367      0.8672      0.4914
H               -1.6959      1.3317      0.3384
H               -0.8125      0.0669     -1.5896
H               -2.3423     -1.6583      0.4081
H                0.5630     -2.2065     -0.1595
H               -0.4686      0.8759      2.4514
H                1.2497     -0.8172      1.6879
H               -2.7868      0.5848      1.4805
H               -1.0883     -1.6453     -1.7958
H               -1.0147     -0.7835      2.4275
C                1.8042      0.5745     -0.6143
O                1.4965     -0.5735     -1.0789
C                2.7573      1.4809     -1.2846
H                2.4912      2.5071     -1.0774
H                2.7720      1.2799     -2.3444
H                3.7500      1.2972     -0.8796
23
P14 HEAT OF FORMATION = -287071.47832 KCAL = -1201106.22353 KJ
H               -3.0290     -0.5229     -0.7269
C               -2.1556     -0.7303     -0.1229
C                0.3366     -1.1626     -0.2685
C               -0.7332      0.0543      1.7983
C                0.5145     -0.3644      1.0428
C               -1.9067      0.4130      0.8747
C               -0.9380     -0.8684     -1.0586
O                1.2368      0.8669      0.4914
H               -1.6956      1.3318      0.3388
H               -0.8126      0.0672     -1.5896
H               -2.3425     -1.6581      0.4081
H                0.5627     -2.2066     -0.1600
H               -0.4682      0.8755      2.4516
H                1.2498     -0.8177      1.6876
H               -2.7865      0.5849      1.4809
H               -1.0887     -1.6450     -1.7959
H               -1.0145     -0.7838      2.4275
C                1.8043      0.5743     -0.6145
O                1.4963     -0.5735     -1.0792
C                2.7573      1.4808     -1.2846
H                2.4885      2.5070     -1.0807
H                2.7752      1.2772     -2.3439
H                3.7492      1.3005     -0.8763
23
P15 HEAT OF FORMATION = -287071.47827 KCAL = -1201106.22332 KJ
H               -3.0291     -0.5225     -0.7267
C               -2.1557     -0.7300     -0.1227
C                0.3364     -1.1626     -0.2688
C               -0.7330      0.0540      1.7984
C                0.5146     -0.3646      1.0427
C               -1.9066      0.4130      0.8749
C               -0.9382     -0.8682     -1.0586
O                1.2370      0.8667      0.4914
H               -1.6954      1.3319      0.3392
H               -0.8128      0.0675     -1.5895
H               -2.3427     -1.6579      0.4080
H                0.5625     -2.2067     -0.1604
H               -0.4678      0.8751      2.4517
H                1.2499     -0.8181      1.6873
H               -2.7863      0.5850      1.4812
H               -1.0891     -1.6446     -1.7961
H               -1.0143     -0.7842      2.4274
C                1.8043      0.5741     -0.6146
O                1.4961     -0.5735     -1.0795
C                2.7574      1.4807     -1.2847
H                2.4861      2.5069     -1.0841
H                2.7783      1.2746     -2.3434
H                3.7484      1.3035     -0.8732
