14
P1 HEAT OF FORMATION = -1704264.48769 KCAL = -7130637.61921 KJ
C               -0.0312     -0.0004     -0.4139
C                0.7290      1.2192      0.1338
H                1.7568      1.2159     -0.2048
H                0.7155      1.1740      1.2169
H                0.2699      2.1493     -0.1794
C                0.7301     -1.2186      0.1336
Br              -0.0222     -0.0007     -2.4279
C               -1.4622     -0.0003      0.1218
H               -1.4277     -0.0011      1.2059
H               -2.0026     -0.8781     -0.2095
H               -2.0018      0.8784     -0.2083
H                0.7161     -1.1743      1.2166
H                1.7579     -1.2140     -0.2047
H                0.2724     -2.1493     -0.1801
14
P2 HEAT OF FORMATION = -1704264.96140 KCAL = -7130639.60120 KJ
C               -0.0269      0.0068     -0.3847
C                0.7406      1.2209      0.1525
H                1.7635      1.2181     -0.2001
H                0.7431      1.1719      1.2363
H                0.2760      2.1510     -0.1509
C                0.7212     -1.2371      0.1094
Br              -0.0327      0.0427     -2.4398
C               -1.4619      0.0093      0.1345
H               -1.4369     -0.0090      1.2195
H               -2.0050     -0.8592     -0.2153
H               -1.9911      0.8976     -0.1860
H                0.7215     -1.2278      1.1943
H                1.7449     -1.2366     -0.2408
H                0.2438     -2.1486     -0.2288
14
P3 HEAT OF FORMATION = -1704264.77314 KCAL = -7130638.81355 KJ
C               -0.0227      0.0129     -0.3559
C                0.7517      1.2220      0.1713
H                1.7702      1.2187     -0.1933
H                0.7678      1.1703      1.2556
H                0.2830      2.1520     -0.1243
C                0.7125     -1.2541      0.0845
Br              -0.0430      0.0869     -2.4512
C               -1.4614      0.0179      0.1478
H               -1.4456     -0.0200      1.2331
H               -2.0074     -0.8402     -0.2218
H               -1.9800      0.9161     -0.1609
H                0.7280     -1.2794      1.1698
H                1.7313     -1.2573     -0.2791
H                0.2155     -2.1458     -0.2757
14
P4 HEAT OF FORMATION = -1704264.04002 KCAL = -7130635.74617 KJ
C               -0.0189      0.0177     -0.3269
C                0.7628      1.2221      0.1903
H                1.7763      1.2183     -0.1869
H                0.7930      1.1674      1.2749
H                0.2901      2.1521     -0.0968
C                0.7042     -1.2696      0.0592
Br              -0.0540      0.1310     -2.4617
C               -1.4611      0.0258      0.1615
H               -1.4549     -0.0312      1.2466
H               -2.0098     -0.8215     -0.2275
H               -1.9689      0.9336     -0.1356
H                0.7337     -1.3309      1.1435
H                1.7180     -1.2736     -0.3174
H                0.1895     -2.1412     -0.3232
14
P5 HEAT OF FORMATION = -1704262.86344 KCAL = -7130630.82336 KJ
C               -0.0155      0.0214     -0.2981
C                0.7736      1.2212      0.2095
H                1.7822      1.2168     -0.1804
H                0.8180      1.1637      1.2941
H                0.2973      2.1514     -0.0691
C                0.6963     -1.2836      0.0337
Br              -0.0657      0.1754     -2.4715
C               -1.4609      0.0329      0.1753
H               -1.4646     -0.0436      1.2598
H               -2.0122     -0.8029     -0.2333
H               -1.9578      0.9501     -0.1096
H                0.7396     -1.3810      1.1155
H                1.7048     -1.2869     -0.3562
H                0.1648     -2.1348     -0.3699
14
P6 HEAT OF FORMATION = -1704261.33075 KCAL = -7130624.41058 KJ
C               -0.0124      0.0242     -0.2693
C                0.7844      1.2192      0.2287
H                1.7875      1.2140     -0.1741
H                0.8433      1.1588      1.3131
H                0.3048      2.1498     -0.0410
C                0.6885     -1.2961      0.0077
Br              -0.0781      0.2210     -2.4804
C               -1.4607      0.0390      0.1894
H               -1.4743     -0.0558      1.2730
H               -2.0140     -0.7856     -0.2378
H               -1.9472      0.9650     -0.0838
H                0.7442     -1.4303      1.0857
H                1.6920     -1.2966     -0.3943
H                0.1419     -2.1266     -0.4170
14
P7 HEAT OF FORMATION = -1704259.51668 KCAL = -7130616.82052 KJ
C               -0.0097      0.0258     -0.2406
C                0.7949      1.2163      0.2481
H                1.7925      1.2101     -0.1675
H                0.8682      1.1526      1.3320
H                0.3123      2.1475     -0.0125
C                0.6812     -1.3072     -0.0185
Br              -0.0909      0.2671     -2.4885
C               -1.4606      0.0444      0.2036
H               -1.4843     -0.0682      1.2856
H               -2.0156     -0.7689     -0.2417
H               -1.9370      0.9785     -0.0580
H                0.7497     -1.4778      1.0542
H                1.6791     -1.3033     -0.4332
H                0.1201     -2.1169     -0.4629
14
P8 HEAT OF FORMATION = -1704257.48474 KCAL = -7130608.31889 KJ
C               -0.0071      0.0265     -0.2122
C                0.8052      1.2125      0.2673
H                1.7968      1.2055     -0.1615
H                0.8931      1.1456      1.3504
H                0.3197      2.1444      0.0161
C                0.6741     -1.3167     -0.0447
Br              -0.1043      0.3135     -2.4958
C               -1.4603      0.0488      0.2179
H               -1.4943     -0.0824      1.2982
H               -2.0170     -0.7526     -0.2459
H               -1.9265      0.9911     -0.0313
H                0.7542     -1.5239      1.0211
H                1.6668     -1.3071     -0.4711
H                0.0996     -2.1053     -0.5085
14
P9 HEAT OF FORMATION = -1704255.28808 KCAL = -7130599.12806 KJ
C               -0.0048      0.0262     -0.1839
C                0.8154      1.2076      0.2864
H                1.8007      1.2001     -0.1559
H                0.9183      1.1369      1.3685
H                0.3273      2.1404      0.0453
C                0.6673     -1.3246     -0.0708
Br              -0.1181      0.3609     -2.5021
C               -1.4604      0.0524      0.2320
H               -1.5051     -0.0975      1.3100
H               -2.0181     -0.7367     -0.2504
H               -1.9166      1.0023     -0.0045
H                0.7601     -1.5677      0.9871
H                1.6540     -1.3075     -0.5096
H                0.0799     -2.0929     -0.5523
14
P10 HEAT OF FORMATION = -1704252.97112 KCAL = -7130589.43393 KJ
C               -0.0026      0.0250     -0.1561
C                0.8248      1.2021      0.3057
H                1.8040      1.1940     -0.1497
H                0.9421      1.1278      1.3865
H                0.3342      2.1356      0.0743
C                0.6609     -1.3314     -0.0975
Br              -0.1322      0.4079     -2.5079
C               -1.4600      0.0552      0.2465
H               -1.5148     -0.1124      1.3219
H               -2.0190     -0.7217     -0.2535
H               -1.9064      1.0127      0.0226
H                0.7648     -1.6104      0.9508
H                1.6424     -1.3061     -0.5471
H                0.0618     -2.0781     -0.5964
14
P11 HEAT OF FORMATION = -1704250.56977 KCAL = -7130579.38667 KJ
C               -0.0006      0.0228     -0.1286
C                0.8340      1.1956      0.3248
H                1.8065      1.1873     -0.1437
H                0.9664      1.1169      1.4040
H                0.3412      2.1300      0.1040
C                0.6549     -1.3367     -0.1240
Br              -0.1466      0.4562     -2.5128
C               -1.4599      0.0572      0.2606
H               -1.5250     -0.1276      1.3331
H               -2.0192     -0.7078     -0.2563
H               -1.8970      1.0214      0.0490
H                0.7706     -1.6505      0.9137
H                1.6306     -1.3022     -0.5849
H                0.0440     -2.0626     -0.6389
14
P12 HEAT OF FORMATION = -1704248.11294 KCAL = -7130569.10731 KJ
C                0.0014      0.0195     -0.1015
C                0.8430      1.1883      0.3436
H                1.8086      1.1804     -0.1386
H                0.9910      1.1050      1.4210
H                0.3474      2.1237      0.1340
C                0.6490     -1.3408     -0.1502
Br              -0.1616      0.5046     -2.5169
C               -1.4595      0.0582      0.2749
H               -1.5351     -0.1437      1.3438
H               -2.0195     -0.6941     -0.2594
H               -1.8871      1.0290      0.0759
H                0.7754     -1.6896      0.8752
H                1.6190     -1.2947     -0.6211
H                0.0282     -2.0459     -0.6808
14
P13 HEAT OF FORMATION = -1704245.62348 KCAL = -7130558.69142 KJ
C                0.0033      0.0156     -0.0747
C                0.8515      1.1805      0.3624
H                1.8101      1.1729     -0.1327
H                1.0140      1.0927      1.4376
H                0.3538      2.1166      0.1636
C                0.6436     -1.3435     -0.1765
Br              -0.1768      0.5533     -2.5202
C               -1.4590      0.0586      0.2890
H               -1.5453     -0.1610      1.3543
H               -2.0192     -0.6808     -0.2624
H               -1.8777      1.0354      0.1030
H                0.7817     -1.7264      0.8359
H                1.6078     -1.2858     -0.6579
H                0.0125     -2.0279     -0.7213
14
P14 HEAT OF FORMATION = -1704243.11859 KCAL = -7130548.21095 KJ
C                0.0052      0.0105     -0.0483
C                0.8595      1.1719      0.3810
H                1.8107      1.1655     -0.1282
H                1.0376      1.0792      1.4537
H                0.3592      2.1087      0.1938
C                0.6384     -1.3452     -0.2023
Br              -0.1924      0.6027     -2.5226
C               -1.4584      0.0579      0.3028
H               -1.5553     -0.1780      1.3638
H               -2.0182     -0.6687     -0.2645
H               -1.8682      1.0407      0.1296
H                0.7871     -1.7622      0.7955
H                1.5967     -1.2742     -0.6928
H               -0.0020     -2.0088     -0.7616
14
P15 HEAT OF FORMATION = -1704240.61093 KCAL = -7130537.71893 KJ
C                0.0071      0.0049     -0.0224
C                0.8672      1.1628      0.3995
H                1.8109      1.1581     -0.1230
H                1.0606      1.0649      1.4696
H                0.3641      2.1004      0.2242
C                0.6335     -1.3456     -0.2284
Br              -0.2075      0.6516     -2.5244
C               -1.4577      0.0565      0.3167
H               -1.5653     -0.1965      1.3732
H               -2.0172     -0.6570     -0.2673
H               -1.8588      1.0448      0.1565
H                0.7937     -1.7947      0.7538
H                1.5858     -1.2616     -0.7281
H               -0.0166     -1.9886     -0.7998
14
P16 HEAT OF FORMATION = -1704238.10867 KCAL = -7130527.24949 KJ
C                0.0093     -0.0019      0.0030
C                0.8744      1.1532      0.4176
H                1.8106      1.1506     -0.1182
H                1.0831      1.0507      1.4848
H                0.3685      2.0911      0.2537
C                0.6291     -1.3452     -0.2539
Br              -0.2240      0.7024     -2.5249
C               -1.4566      0.0541      0.3304
H               -1.5749     -0.2149      1.3823
H               -2.0157     -0.6465     -0.2696
H               -1.8492      1.0475      0.1828
H                0.7994     -1.8269      0.7114
H                1.5758     -1.2471     -0.7612
H               -0.0299     -1.9671     -0.8383
14
P17 HEAT OF FORMATION = -1704235.61759 KCAL = -7130516.82678 KJ
C                0.0112     -0.0095      0.0280
C                0.8812      1.1429      0.4357
H                1.8094      1.1428     -0.1133
H                1.1052      1.0350      1.4995
H                0.3726      2.0812      0.2842
C                0.6249     -1.3436     -0.2795
Br              -0.2396      0.7522     -2.5249
C               -1.4558      0.0511      0.3438
H               -1.5847     -0.2333      1.3907
H               -2.0138     -0.6367     -0.2711
H               -1.8402      1.0493      0.2085
H                0.8061     -1.8562      0.6678
H                1.5655     -1.2299     -0.7949
H               -0.0420     -1.9453     -0.8748
14
P18 HEAT OF FORMATION = -1704233.62279 KCAL = -7130508.48058 KJ
C                0.0119     -0.0141      0.0418
C                0.8870      1.1316      0.4529
H                1.8085      1.1371     -0.1067
H                1.1231      1.0095      1.5127
H                0.3778      2.0722      0.3195
C                0.6207     -1.3398     -0.3036
Br              -0.2558      0.8037     -2.5338
C               -1.4541      0.0477      0.3558
H               -1.5859     -0.2572      1.3966
H               -2.0139     -0.6251     -0.2735
H               -1.8336      1.0500      0.2399
H                0.8121     -1.8742      0.6299
H                1.5553     -1.2139     -0.8261
H               -0.0531     -1.9277     -0.9054
14
P19 HEAT OF FORMATION = -1704231.21196 KCAL = -7130498.39367 KJ
C                0.0140     -0.0228      0.0653
C                0.8931      1.1205      0.4706
H                1.8061      1.1300     -0.1024
H                1.1450      0.9924      1.5263
H                0.3809      2.0611      0.3503
C                0.6170     -1.3366     -0.3283
Br              -0.2720      0.8544     -2.5326
C               -1.4529      0.0434      0.3686
H               -1.5954     -0.2769      1.4037
H               -2.0115     -0.6158     -0.2757
H               -1.8244      1.0499      0.2655
H                0.8196     -1.9001      0.5859
H                1.5451     -1.1944     -0.8578
H               -0.0647     -1.9051     -0.9395
14
P20 HEAT OF FORMATION = -1704228.81851 KCAL = -7130488.37948 KJ
C                0.0162     -0.0324      0.0884
C                0.8989      1.1092      0.4880
H                1.8031      1.1232     -0.0984
H                1.1667      0.9751      1.5392
H                0.3834      2.0494      0.3811
C                0.6137     -1.3325     -0.3525
Br              -0.2886      0.9053     -2.5305
C               -1.4515      0.0383      0.3812
H               -1.6048     -0.2971      1.4102
H               -2.0087     -0.6073     -0.2778
H               -1.8154      1.0487      0.2908
H                0.8267     -1.9248      0.5412
H                1.5356     -1.1735     -0.8877
H               -0.0754     -1.8814     -0.9731
