21
P1 HEAT OF FORMATION = -216693.64857 KCAL = -906645.59022 KJ
H                1.1255     -0.0206     -1.7433
C                0.6835     -0.1734     -0.7694
C                1.5650      1.4584      0.8936
C               -1.2756     -0.4784      0.5823
C               -0.8530      0.9838      0.8496
C               -0.7309     -0.7924     -0.8206
C                0.4796      1.1982     -0.0252
H                1.8508      0.6947      1.5993
H               -0.8173     -1.1454      1.3043
H               -1.5849      1.6832      0.4724
H               -1.3190     -0.2578     -1.5591
H                0.3658      2.0242     -0.7087
H                1.3265     -0.8311     -0.1918
O                2.1770      2.5763      0.9078
H               -2.3496     -0.5886      0.6488
H               -0.7112      1.1912      1.9041
C               -0.7086     -2.2872     -1.1607
H               -0.1298     -2.8385     -0.4270
H               -0.2746     -2.4564     -2.1392
H               -1.7152     -2.6879     -1.1698
H                2.8961      2.7477      1.5528
21
P2 HEAT OF FORMATION = -216692.76693 KCAL = -906641.90144 KJ
H                1.1337     -0.0255     -1.7336
C                0.6844     -0.1761     -0.7627
C                1.5644      1.4646      0.8917
C               -1.2822     -0.4801      0.5781
C               -0.8538      0.9793      0.8546
C               -0.7306     -0.7921     -0.8227
C                0.4753      1.1967     -0.0219
H                1.8474      0.7085      1.6059
H               -0.8314     -1.1520      1.3001
H               -1.5858      1.6838      0.4879
H               -1.3135     -0.2548     -1.5631
H                0.3573      2.0185     -0.7094
H                1.3219     -0.8336     -0.1790
O                2.1806      2.5796      0.8896
H               -2.3569     -0.5855      0.6377
H               -0.7065      1.1761      1.9101
C               -0.7097     -2.2863     -1.1658
H               -0.1348     -2.8399     -0.4311
H               -0.2723     -2.4543     -2.1429
H               -1.7168     -2.6851     -1.1795
H                2.9294      2.7583      1.5558
21
P3 HEAT OF FORMATION = -216690.69853 KCAL = -906633.24724 KJ
H                1.1333     -0.0262     -1.7337
C                0.6835     -0.1764     -0.7631
C                1.5639      1.4652      0.8911
C               -1.2840     -0.4804      0.5766
C               -0.8547      0.9787      0.8537
C               -0.7317     -0.7923     -0.8241
C                0.4736      1.1961     -0.0226
H                1.8461      0.7092      1.6054
H               -0.8339     -1.1529      1.2986
H               -1.5871      1.6836      0.4883
H               -1.3141     -0.2547     -1.5648
H                0.3552      2.0175     -0.7106
H                1.3204     -0.8341     -0.1788
O                2.1790      2.5803      0.8864
H               -2.3589     -0.5855      0.6354
H               -0.7068      1.1745      1.9094
C               -0.7110     -2.2865     -1.1672
H               -0.1358     -2.8401     -0.4329
H               -0.2741     -2.4546     -2.1444
H               -1.7180     -2.6851     -1.1804
H                2.9551      2.7636      1.5775
21
P4 HEAT OF FORMATION = -216687.70820 KCAL = -906620.73571 KJ
H                1.1331     -0.0268     -1.7343
C                0.6822     -0.1766     -0.7638
C                1.5634      1.4655      0.8903
C               -1.2855     -0.4806      0.5753
C               -0.8559      0.9784      0.8527
C               -0.7327     -0.7925     -0.8252
C                0.4717      1.1955     -0.0233
H                1.8445      0.7094      1.6051
H               -0.8355     -1.1530      1.2971
H               -1.5886      1.6834      0.4885
H               -1.3151     -0.2550     -1.5658
H                0.3535      2.0165     -0.7117
H                1.3188     -0.8340     -0.1792
O                2.1773      2.5804      0.8831
H               -2.3602     -0.5855      0.6341
H               -0.7073      1.1734      1.9084
C               -0.7123     -2.2866     -1.1686
H               -0.1378     -2.8404     -0.4336
H               -0.2743     -2.4546     -2.1456
H               -1.7196     -2.6851     -1.1828
H                2.9803      2.7684      1.5992
21
P5 HEAT OF FORMATION = -216684.00624 KCAL = -906605.24673 KJ
H                1.1317     -0.0267     -1.7343
C                0.6815     -0.1766     -0.7641
C                1.5632      1.4663      0.8898
C               -1.2874     -0.4810      0.5738
C               -0.8571      0.9779      0.8518
C               -0.7338     -0.7927     -0.8266
C                0.4699      1.1951     -0.0237
H                1.8437      0.7098      1.6039
H               -0.8383     -1.1540      1.2961
H               -1.5904      1.6829      0.4883
H               -1.3154     -0.2547     -1.5678
H                0.3510      2.0160     -0.7127
H                1.3176     -0.8344     -0.1789
O                2.1764      2.5808      0.8799
H               -2.3625     -0.5857      0.6313
H               -0.7085      1.1723      1.9076
C               -0.7133     -2.2868     -1.1698
H               -0.1381     -2.8406     -0.4356
H               -0.2765     -2.4551     -2.1470
H               -1.7203     -2.6854     -1.1828
H                3.0067      2.7725      1.6211
21
P6 HEAT OF FORMATION = -216679.78006 KCAL = -906587.56444 KJ
H                1.1417     -0.0301     -1.7214
C                0.6821     -0.1780     -0.7552
C                1.5614      1.4733      0.8882
C               -1.2964     -0.4824      0.5684
C               -0.8607      0.9735      0.8574
C               -0.7331     -0.7922     -0.8286
C                0.4628      1.1951     -0.0185
H                1.8379      0.7242      1.6120
H               -0.8565     -1.1608      1.2911
H               -1.5942      1.6838      0.5052
H               -1.3088     -0.2526     -1.5729
H                0.3399      2.0112     -0.7120
H                1.3119     -0.8348     -0.1624
O                2.1843      2.5813      0.8569
H               -2.3722     -0.5821      0.6169
H               -0.7069      1.1560      1.9145
C               -0.7116     -2.2857     -1.1744
H               -0.1427     -2.8413     -0.4365
H               -0.2676     -2.4527     -2.1487
H               -1.7193     -2.6833     -1.1959
H                3.0479      2.7777      1.6158
21
P7 HEAT OF FORMATION = -216675.13309 KCAL = -906568.12151 KJ
H                1.1445     -0.0307     -1.7169
C                0.6815     -0.1782     -0.7522
C                1.5604      1.4760      0.8877
C               -1.3004     -0.4835      0.5661
C               -0.8633      0.9715      0.8589
C               -0.7336     -0.7920     -0.8300
C                0.4588      1.1949     -0.0164
H                1.8342      0.7302      1.6157
H               -0.8636     -1.1640      1.2889
H               -1.5974      1.6831      0.5105
H               -1.3072     -0.2515     -1.5751
H                0.3345      2.0094     -0.7115
H                1.3090     -0.8350     -0.1566
O                2.1871      2.5805      0.8458
H               -2.3766     -0.5820      0.6111
H               -0.7080      1.1500      1.9165
C               -0.7117     -2.2851     -1.1773
H               -0.1453     -2.8420     -0.4382
H               -0.2650     -2.4514     -2.1504
H               -1.7194     -2.6820     -1.2020
H                3.0813      2.7819      1.6257
21
P8 HEAT OF FORMATION = -216670.18930 KCAL = -906547.43671 KJ
H                1.1350     -0.0221     -1.7266
C                0.6776     -0.1730     -0.7594
C                1.5571      1.4718      0.8889
C               -1.2982     -0.4830      0.5674
C               -0.8680      0.9753      0.8522
C               -0.7356     -0.7922     -0.8301
C                0.4557      1.1984     -0.0193
H                1.8220      0.7227      1.6167
H               -0.8539     -1.1581      1.2906
H               -1.6043      1.6807      0.4958
H               -1.3142     -0.2552     -1.5741
H                0.3354      2.0159     -0.7122
H                1.3113     -0.8291     -0.1699
O                2.1914      2.5708      0.8490
H               -2.3735     -0.5881      0.6178
H               -0.7179      1.1624      1.9092
C               -0.7098     -2.2860     -1.1744
H               -0.1380     -2.8391     -0.4369
H               -0.2669     -2.4527     -2.1491
H               -1.7162     -2.6867     -1.1939
H                3.1109      2.7672      1.6583
21
P9 HEAT OF FORMATION = -216665.03916 KCAL = -906525.88855 KJ
H                1.1227     -0.0131     -1.7380
C                0.6732     -0.1678     -0.7680
C                1.5540      1.4670      0.8897
C               -1.2951     -0.4819      0.5691
C               -0.8723      0.9799      0.8447
C               -0.7383     -0.7927     -0.8302
C                0.4529      1.2017     -0.0235
H                1.8102      0.7132      1.6158
H               -0.8422     -1.1514      1.2923
H               -1.6106      1.6787      0.4797
H               -1.3227     -0.2596     -1.5726
H                0.3381      2.0226     -0.7128
H                1.3136     -0.8231     -0.1847
O                2.1945      2.5616      0.8548
H               -2.3691     -0.5936      0.6263
H               -0.7270      1.1767      1.9005
C               -0.7082     -2.2873     -1.1711
H               -0.1304     -2.8356     -0.4349
H               -0.2684     -2.4543     -2.1476
H               -1.7127     -2.6925     -1.1848
H                3.1377      2.7515      1.6953
21
P10 HEAT OF FORMATION = -216659.74479 KCAL = -906503.73692 KJ
H                1.1079      0.0059     -1.7481
C                0.6673     -0.1574     -0.7753
C                1.5471      1.4608      0.8954
C               -1.2931     -0.4822      0.5717
C               -0.8839      0.9850      0.8360
C               -0.7402     -0.7924     -0.8292
C                0.4442      1.2090     -0.0219
H                1.7811      0.7089      1.6308
H               -0.8293     -1.1436      1.2956
H               -1.6263      1.6725      0.4571
H               -1.3319     -0.2650     -1.5698
H                0.3384      2.0343     -0.7073
H                1.3176     -0.8112     -0.2016
O                2.2136      2.5380      0.8481
H               -2.3655     -0.6056      0.6350
H               -0.7502      1.1955      1.8905
C               -0.7007     -2.2872     -1.1673
H               -0.1164     -2.8305     -0.4323
H               -0.2637     -2.4532     -2.1451
H               -1.7024     -2.6994     -1.1762
H                3.1866      2.7177      1.7139
21
P11 HEAT OF FORMATION = -216654.37339 KCAL = -906481.26298 KJ
H                1.0993      0.0157     -1.7544
C                0.6635     -0.1517     -0.7802
C                1.5431      1.4578      0.8972
C               -1.2928     -0.4821      0.5725
C               -0.8906      0.9879      0.8309
C               -0.7416     -0.7923     -0.8292
C                0.4390      1.2128     -0.0224
H                1.7671      0.7054      1.6353
H               -0.8234     -1.1389      1.2970
H               -1.6350      1.6692      0.4451
H               -1.3373     -0.2684     -1.5692
H                0.3372      2.0406     -0.7056
H                1.3190     -0.8046     -0.2110
O                2.2206      2.5266      0.8464
H               -2.3645     -0.6113      0.6387
H               -0.7618      1.2052      1.8850
C               -0.6971     -2.2875     -1.1653
H               -0.1095     -2.8275     -0.4305
H               -0.2613     -2.4533     -2.1436
H               -1.6975     -2.7034     -1.1723
H                3.2239      2.6997      1.7355
21
P12 HEAT OF FORMATION = -216648.96716 KCAL = -906458.64333 KJ
H                1.0942      0.0221     -1.7574
C                0.6608     -0.1479     -0.7826
C                1.5400      1.4565      0.8986
C               -1.2937     -0.4823      0.5723
C               -0.8959      0.9894      0.8277
C               -0.7429     -0.7922     -0.8298
C                0.4341      1.2153     -0.0220
H                1.7551      0.7054      1.6406
H               -0.8212     -1.1367      1.2970
H               -1.6419      1.6671      0.4382
H               -1.3408     -0.2703     -1.5694
H                0.3349      2.0442     -0.7043
H                1.3192     -0.8000     -0.2160
O                2.2270      2.5174      0.8414
H               -2.3648     -0.6154      0.6398
H               -0.7706      1.2104      1.8813
C               -0.6948     -2.2875     -1.1650
H               -0.1052     -2.8257     -0.4303
H               -0.2594     -2.4528     -2.1435
H               -1.6941     -2.7058     -1.1706
H                3.2597      2.6887      1.7540
21
P13 HEAT OF FORMATION = -216643.56821 KCAL = -906436.05413 KJ
H                1.0928      0.0234     -1.7578
C                0.6593     -0.1470     -0.7831
C                1.5387      1.4571      0.8986
C               -1.2955     -0.4826      0.5712
C               -0.8984      0.9893      0.8264
C               -0.7439     -0.7922     -0.8307
C                0.4311      1.2157     -0.0222
H                1.7498      0.7067      1.6426
H               -0.8227     -1.1368      1.2959
H               -1.6451      1.6662      0.4370
H               -1.3418     -0.2706     -1.5705
H                0.3324      2.0444     -0.7048
H                1.3180     -0.7989     -0.2166
O                2.2288      2.5143      0.8367
H               -2.3665     -0.6164      0.6384
H               -0.7734      1.2104      1.8801
C               -0.6949     -2.2874     -1.1662
H               -0.1053     -2.8253     -0.4314
H               -0.2591     -2.4524     -2.1446
H               -1.6940     -2.7064     -1.1723
H                3.2897      2.6886      1.7734
21
P14 HEAT OF FORMATION = -216638.20937 KCAL = -906413.63278 KJ
H                1.0913      0.0246     -1.7587
C                0.6578     -0.1461     -0.7840
C                1.5376      1.4575      0.8982
C               -1.2971     -0.4829      0.5700
C               -0.9005      0.9894      0.8250
C               -0.7450     -0.7923     -0.8318
C                0.4285      1.2160     -0.0229
H                1.7452      0.7077      1.6437
H               -0.8240     -1.1368      1.2949
H               -1.6480      1.6655      0.4356
H               -1.3431     -0.2710     -1.5717
H                0.3299      2.0446     -0.7056
H                1.3168     -0.7978     -0.2174
O                2.2299      2.5115      0.8332
H               -2.3680     -0.6174      0.6370
H               -0.7759      1.2105      1.8788
C               -0.6953     -2.2875     -1.1672
H               -0.1053     -2.8250     -0.4324
H               -0.2593     -2.4522     -2.1456
H               -1.6941     -2.7070     -1.1733
H                3.3187      2.6890      1.7940
21
P15 HEAT OF FORMATION = -216632.91758 KCAL = -906391.49194 KJ
H                1.0898      0.0251     -1.7597
C                0.6563     -0.1456     -0.7851
C                1.5366      1.4580      0.8977
C               -1.2985     -0.4831      0.5688
C               -0.9024      0.9894      0.8237
C               -0.7462     -0.7924     -0.8330
C                0.4261      1.2161     -0.0239
H                1.7415      0.7080      1.6439
H               -0.8252     -1.1367      1.2938
H               -1.6505      1.6651      0.4345
H               -1.3445     -0.2714     -1.5729
H                0.3276      2.0446     -0.7067
H                1.3155     -0.7970     -0.2184
O                2.2302      2.5093      0.8308
H               -2.3694     -0.6181      0.6358
H               -0.7777      1.2107      1.8773
C               -0.6959     -2.2876     -1.1683
H               -0.1057     -2.8249     -0.4334
H               -0.2599     -2.4522     -2.1467
H               -1.6945     -2.7075     -1.1742
H                3.3468      2.6904      1.8158
