23
P1 HEAT OF FORMATION = -284638.43734 KCAL = -1190926.38722 KJ
H                0.5943     -0.3999     -2.1394
C                0.5133     -0.2879     -1.0650
C                0.6437      1.3725      0.8378
C               -0.9919     -0.5343      0.9304
C               -0.7213      0.9124      1.3490
C               -0.8868     -0.6996     -0.5913
C                0.7753      1.1688     -0.6677
O                1.7209      0.5788      1.3235
H               -0.2756     -1.1923      1.4082
H               -1.4895      1.5701      0.9566
H               -1.6234     -0.0557     -1.0659
H                0.1766      1.8680     -1.2365
H                1.2510     -0.9109     -0.5799
H                0.7983      2.4302      1.0783
H               -1.9805     -0.8285      1.2606
H               -0.7300      1.0168      2.4282
C               -1.1577     -2.1445     -1.0089
N                2.1372      1.4753     -0.9875
H               -0.4396     -2.8159     -0.5505
H               -1.0992     -2.2621     -2.0850
H               -2.1496     -2.4462     -0.6950
H                1.7573      0.5258      2.3027
N                3.1773      1.6592     -1.2026
23
P2 HEAT OF FORMATION = -284639.98596 KCAL = -1190932.86661 KJ
H                0.5875     -0.3752     -2.1348
C                0.5041     -0.2810     -1.0589
C                0.6930      1.3695      0.8698
C               -1.0097     -0.5261      0.9243
C               -0.7383      0.9244      1.3306
C               -0.8958     -0.7077     -0.5951
C                0.7541      1.1732     -0.6399
O                1.7366      0.5370      1.3379
H               -0.2990     -1.1802      1.4153
H               -1.4679      1.5934      0.8878
H               -1.6358     -0.0763     -1.0802
H                0.1509      1.8866     -1.1833
H                1.2455     -0.9041     -0.5801
H                0.8619      2.4210      1.1256
H               -2.0018     -0.8117      1.2518
H               -0.7979      1.0462      2.4062
C               -1.1458     -2.1599     -1.0015
N                2.1438      1.4931     -1.0211
H               -0.4232     -2.8181     -0.5314
H               -1.0777     -2.2865     -2.0760
H               -2.1366     -2.4704     -0.6924
H                1.7766      0.4710      2.3161
N                3.1755      1.6819     -1.2704
23
P3 HEAT OF FORMATION = -284639.23638 KCAL = -1190929.73037 KJ
H                0.5801     -0.3499     -2.1298
C                0.4953     -0.2739     -1.0528
C                0.7402      1.3626      0.8998
C               -1.0281     -0.5176      0.9187
C               -0.7550      0.9367      1.3115
C               -0.9038     -0.7155     -0.5981
C                0.7346      1.1771     -0.6113
O                1.7485      0.4936      1.3518
H               -0.3235     -1.1677      1.4235
H               -1.4456      1.6146      0.8232
H               -1.6470     -0.0965     -1.0938
H                0.1289      1.9048     -1.1298
H                1.2407     -0.8972     -0.5813
H                0.9230      2.4076      1.1708
H               -2.0241     -0.7946      1.2425
H               -0.8598      1.0781      2.3808
C               -1.1334     -2.1744     -0.9932
N                2.1494      1.5117     -1.0558
H               -0.4068     -2.8195     -0.5113
H               -1.0550     -2.3097     -2.0660
H               -2.1230     -2.4935     -0.6893
H                1.7930      0.4167      2.3290
N                3.1715      1.7062     -1.3391
23
P4 HEAT OF FORMATION = -284636.82273 KCAL = -1190919.63168 KJ
H                0.5720     -0.3241     -2.1246
C                0.4868     -0.2667     -1.0467
C                0.7852      1.3533      0.9278
C               -1.0467     -0.5094      0.9135
C               -0.7711      0.9488      1.2916
C               -0.9114     -0.7228     -0.6006
C                0.7169      1.1802     -0.5821
O                1.7567      0.4503      1.3665
H               -0.3483     -1.1552      1.4319
H               -1.4243      1.6332      0.7635
H               -1.6573     -0.1160     -1.1066
H                0.1118      1.9225     -1.0773
H                1.2363     -0.8909     -0.5835
H                0.9807      2.3917      1.2137
H               -2.0465     -0.7778      1.2331
H               -0.9141      1.1111      2.3530
C               -1.1209     -2.1879     -0.9846
N                2.1544      1.5301     -1.0912
H               -0.3909     -2.8202     -0.4911
H               -1.0322     -2.3316     -2.0555
H               -2.1093     -2.5156     -0.6860
H                1.8063      0.3662      2.3429
N                3.1659      1.7309     -1.4078
23
P5 HEAT OF FORMATION = -284633.24015 KCAL = -1190904.64220 KJ
H                0.5640     -0.2985     -2.1185
C                0.4784     -0.2597     -1.0401
C                0.8281      1.3433      0.9538
C               -1.0647     -0.5020      0.9086
C               -0.7863      0.9600      1.2709
C               -0.9188     -0.7300     -0.6027
C                0.7006      1.1825     -0.5526
O                1.7624      0.4102      1.3822
H               -0.3721     -1.1434      1.4399
H               -1.4058      1.6484      0.7101
H               -1.6667     -0.1346     -1.1185
H                0.0999      1.9396     -1.0275
H                1.2320     -0.8849     -0.5853
H                1.0331      2.3755      1.2537
H               -2.0680     -0.7623      1.2243
H               -0.9594      1.1431      2.3240
C               -1.1091     -2.2005     -0.9767
N                2.1590      1.5469     -1.1269
H               -0.3765     -2.8208     -0.4720
H               -1.0100     -2.3516     -2.0456
H               -2.0966     -2.5363     -0.6838
H                1.8172      0.3213      2.3579
N                3.1592      1.7535     -1.4752
23
P6 HEAT OF FORMATION = -284628.88925 KCAL = -1190886.43803 KJ
H                0.5554     -0.2723     -2.1119
C                0.4695     -0.2524     -1.0333
C                0.8690      1.3334      0.9778
C               -1.0821     -0.4959      0.9039
C               -0.8007      0.9701      1.2492
C               -0.9264     -0.7371     -0.6047
C                0.6856      1.1845     -0.5230
O                1.7658      0.3738      1.3993
H               -0.3940     -1.1321      1.4469
H               -1.3918      1.6602      0.6620
H               -1.6764     -0.1524     -1.1292
H                0.0942      1.9572     -0.9808
H                1.2270     -0.8792     -0.5876
H                1.0798      2.3599      1.2918
H               -2.0882     -0.7486      1.2169
H               -0.9958      1.1739      2.2943
C               -1.0981     -2.2124     -0.9697
N                2.1638      1.5608     -1.1623
H               -0.3628     -2.8210     -0.4550
H               -0.9892     -2.3697     -2.0366
H               -2.0843     -2.5564     -0.6820
H                1.8272      0.2836      2.3745
N                3.1527      1.7720     -1.5404
23
P7 HEAT OF FORMATION = -284624.11659 KCAL = -1190866.46924 KJ
H                0.5467     -0.2461     -2.1043
C                0.4602     -0.2448     -1.0259
C                0.9080      1.3241      1.0000
C               -1.0988     -0.4911      0.8995
C               -0.8143      0.9790      1.2264
C               -0.9344     -0.7441     -0.6065
C                0.6715      1.1864     -0.4935
O                1.7670      0.3412      1.4180
H               -0.4143     -1.1218      1.4530
H               -1.3835      1.6686      0.6188
H               -1.6862     -0.1694     -1.1390
H                0.0944      1.9756     -0.9377
H                1.2215     -0.8735     -0.5894
H                1.1204      2.3452      1.3289
H               -2.1073     -0.7365      1.2108
H               -1.0228      1.2030      2.2645
C               -1.0882     -2.2235     -0.9639
N                2.1689      1.5712     -1.1974
H               -0.3505     -2.8214     -0.4403
H               -0.9697     -2.3857     -2.0292
H               -2.0731     -2.5758     -0.6818
H                1.8379      0.2542      2.3928
N                3.1465      1.7852     -1.6035
23
P8 HEAT OF FORMATION = -284619.24743 KCAL = -1190846.09670 KJ
H                0.5369     -0.2188     -2.0965
C                0.4499     -0.2364     -1.0186
C                0.9456      1.3151      1.0201
C               -1.1153     -0.4871      0.8951
C               -0.8273      0.9869      1.2024
C               -0.9427     -0.7510     -0.6084
C                0.6580      1.1887     -0.4643
O                1.7651      0.3109      1.4380
H               -0.4337     -1.1121      1.4585
H               -1.3817      1.6742      0.5800
H               -1.6967     -0.1863     -1.1481
H                0.1007      1.9960     -0.8978
H                1.2152     -0.8672     -0.5922
H                1.1553      2.3308      1.3660
H               -2.1258     -0.7254      1.2055
H               -1.0397      1.2309      2.2350
C               -1.0783     -2.2341     -0.9588
N                2.1741      1.5780     -1.2324
H               -0.3382     -2.8212     -0.4265
H               -0.9501     -2.4006     -2.0222
H               -2.0616     -2.5953     -0.6823
H                1.8493      0.2313      2.4124
N                3.1408      1.7927     -1.6648
23
P9 HEAT OF FORMATION = -284614.60924 KCAL = -1190826.69053 KJ
H                0.5275     -0.1915     -2.0882
C                0.4395     -0.2279     -1.0112
C                0.9819      1.3066      1.0383
C               -1.1314     -0.4842      0.8905
C               -0.8398      0.9937      1.1772
C               -0.9511     -0.7580     -0.6106
C                0.6448      1.1908     -0.4355
O                1.7611      0.2841      1.4604
H               -0.4522     -1.1033      1.4629
H               -1.3874      1.6773      0.5459
H               -1.7069     -0.2025     -1.1569
H                0.1124      2.0169     -0.8608
H                1.2087     -0.8611     -0.5952
H                1.1829      2.3170      1.4032
H               -2.1438     -0.7154      1.2005
H               -1.0457      1.2565      2.2063
C               -1.0695     -2.2442     -0.9549
N                2.1795      1.5816     -1.2668
H               -0.3271     -2.8213     -0.4149
H               -0.9322     -2.4140     -2.0167
H               -2.0511     -2.6139     -0.6837
H                1.8643      0.2174      2.4340
N                3.1355      1.7952     -1.7239
23
P10 HEAT OF FORMATION = -284610.54741 KCAL = -1190809.69582 KJ
H                0.5183     -0.1642     -2.0800
C                0.4290     -0.2191     -1.0042
C                1.0172      1.2979      1.0542
C               -1.1476     -0.4814      0.8853
C               -0.8518      0.9999      1.1509
C               -0.9593     -0.7647     -0.6134
C                0.6314      1.1930     -0.4072
O                1.7522      0.2583      1.4853
H               -0.4711     -1.0951      1.4666
H               -1.4016      1.6791      0.5176
H               -1.7168     -0.2184     -1.1662
H                0.1288      2.0388     -0.8265
H                1.2021     -0.8548     -0.5990
H                1.2045      2.3024      1.4413
H               -2.1619     -0.7050      1.1947
H               -1.0389      1.2799      2.1791
C               -1.0608     -2.2538     -0.9515
N                2.1843      1.5821     -1.3011
H               -0.3167     -2.8210     -0.4034
H               -0.9139     -2.4268     -2.0114
H               -2.0407     -2.6321     -0.6861
H                1.8835      0.2110      2.4566
N                3.1297      1.7940     -1.7815
23
P11 HEAT OF FORMATION = -284607.40941 KCAL = -1190796.56646 KJ
H                0.5104     -0.1380     -2.0720
C                0.4193     -0.2108     -0.9978
C                1.0515      1.2897      1.0677
C               -1.1635     -0.4788      0.8794
C               -0.8635      1.0058      1.1238
C               -0.9668     -0.7712     -0.6168
C                0.6174      1.1945     -0.3796
O                1.7400      0.2356      1.5127
H               -0.4901     -1.0873      1.4695
H               -1.4244      1.6801      0.4955
H               -1.7256     -0.2336     -1.1762
H                0.1494      2.0600     -0.7953
H                1.1961     -0.8491     -0.6034
H                1.2195      2.2876      1.4788
H               -2.1798     -0.6947      1.1879
H               -1.0194      1.3008      2.1530
C               -1.0530     -2.2630     -0.9485
N                2.1886      1.5808     -1.3341
H               -0.3076     -2.8210     -0.3928
H               -0.8968     -2.4392     -2.0065
H               -2.0314     -2.6490     -0.6887
H                1.9060      0.2108      2.4795
N                3.1240      1.7899     -1.8361
23
P12 HEAT OF FORMATION = -284605.50746 KCAL = -1190788.60867 KJ
H                0.5041     -0.1137     -2.0645
C                0.4102     -0.2032     -0.9922
C                1.0847      1.2825      1.0778
C               -1.1794     -0.4759      0.8725
C               -0.8750      1.0114      1.0970
C               -0.9738     -0.7775     -0.6210
C                0.6011      1.1955     -0.3532
O                1.7263      0.2175      1.5397
H               -0.5101     -1.0802      1.4713
H               -1.4554      1.6813      0.4819
H               -1.7333     -0.2484     -1.1871
H                0.1718      2.0796     -0.7684
H                1.1904     -0.8438     -0.6077
H                1.2302      2.2735      1.5128
H               -2.1980     -0.6839      1.1793
H               -0.9879      1.3179      2.1284
C               -1.0462     -2.2718     -0.9454
N                2.1929      1.5781     -1.3630
H               -0.3001     -2.8211     -0.3819
H               -0.8807     -2.4515     -2.0014
H               -2.0232     -2.6649     -0.6912
H                1.9321      0.2145      2.4992
N                3.1196      1.7841     -1.8829
23
P13 HEAT OF FORMATION = -284605.03296 KCAL = -1190786.62340 KJ
H                0.4986     -0.0914     -2.0577
C                0.4016     -0.1962     -0.9874
C                1.1167      1.2773      1.0842
C               -1.1947     -0.4731      0.8656
C               -0.8867      1.0166      1.0712
C               -0.9803     -0.7835     -0.6252
C                0.5816      1.1962     -0.3277
O                1.7143      0.2058      1.5639
H               -0.5291     -1.0737      1.4721
H               -1.4929      1.6821      0.4764
H               -1.7404     -0.2624     -1.1979
H                0.1946      2.0968     -0.7463
H                1.1852     -0.8386     -0.6120
H                1.2402      2.2615      1.5403
H               -2.2152     -0.6746      1.1704
H               -0.9490      1.3317      2.1044
C               -1.0404     -2.2802     -0.9423
N                2.1977      1.5745     -1.3859
H               -0.2940     -2.8213     -0.3714
H               -0.8662     -2.4634     -1.9963
H               -2.0163     -2.6795     -0.6933
H                1.9567      0.2189      2.5147
N                3.1179      1.7764     -1.9197
23
P14 HEAT OF FORMATION = -284606.01278 KCAL = -1190790.72293 KJ
H                0.4924     -0.0699     -2.0518
C                0.3925     -0.1890     -0.9834
C                1.1469      1.2735      1.0867
C               -1.2097     -0.4701      0.8590
C               -0.8995      1.0220      1.0465
C               -0.9869     -0.7891     -0.6291
C                0.5584      1.1971     -0.3032
O                1.7079      0.1996      1.5803
H               -0.5472     -1.0672      1.4724
H               -1.5345      1.6824      0.4764
H               -1.7478     -0.2762     -1.2080
H                0.2164      2.1115     -0.7291
H                1.1796     -0.8325     -0.6166
H                1.2525      2.2508      1.5611
H               -2.2317     -0.6673      1.1617
H               -0.9093      1.3440      2.0795
C               -1.0352     -2.2881     -0.9382
N                2.2045      1.5705     -1.4004
H               -0.2882     -2.8211     -0.3602
H               -0.8528     -2.4752     -1.9902
H               -2.0096     -2.6936     -0.6934
H                1.9804      0.2204      2.5228
N                3.1212      1.7675     -1.9428
23
P15 HEAT OF FORMATION = -284608.31036 KCAL = -1190800.33602 KJ
H                0.4839     -0.0485     -2.0465
C                0.3822     -0.1813     -0.9801
C                1.1749      1.2704      1.0858
C               -1.2250     -0.4671      0.8531
C               -0.9140      1.0274      1.0228
C               -0.9940     -0.7945     -0.6322
C                0.5316      1.1981     -0.2792
O                1.7066      0.1969      1.5890
H               -0.5641     -1.0600      1.4726
H               -1.5782      1.6815      0.4787
H               -1.7562     -0.2903     -1.2169
H                0.2359      2.1231     -0.7155
H                1.1731     -0.8254     -0.6220
H                1.2709      2.2417      1.5736
H               -2.2477     -0.6624      1.1542
H               -0.8749      1.3559      2.0533
C               -1.0304     -2.2958     -0.9333
N                2.2141      1.5665     -1.4054
H               -0.2825     -2.8204     -0.3488
H               -0.8407     -2.4866     -1.9833
H               -2.0031     -2.7075     -0.6921
H                2.0074      0.2203      2.5229
N                3.1304      1.7581     -1.9508
23
P16 HEAT OF FORMATION = -284611.67295 KCAL = -1190814.40508 KJ
H                0.4729     -0.0254     -2.0414
C                0.3703     -0.1721     -0.9771
C                1.2001      1.2673      1.0824
C               -1.2413     -0.4640      0.8479
C               -0.9310      1.0331      1.0003
C               -1.0019     -0.7994     -0.6347
C                0.5012      1.2000     -0.2547
O                1.7121      0.1964      1.5884
H               -0.5808     -1.0519      1.4729
H               -1.6223      1.6793      0.4806
H               -1.7659     -0.3047     -1.2250
H                0.2515      2.1326     -0.7031
H                1.1656     -0.8160     -0.6278
H                1.2944      2.2333      1.5806
H               -2.2641     -0.6600      1.1473
H               -0.8510      1.3682      2.0266
C               -1.0250     -2.3028     -0.9276
N                2.2260      1.5646     -1.4003
H               -0.2757     -2.8182     -0.3367
H               -0.8282     -2.4974     -1.9756
H               -1.9955     -2.7216     -0.6893
H                2.0430      0.2186      2.5121
N                3.1456      1.7404     -1.9458
23
P17 HEAT OF FORMATION = -284615.79051 KCAL = -1190831.63295 KJ
H                0.4597     -0.0048     -2.0366
C                0.3569     -0.1649     -0.9743
C                1.2245      1.2608      1.0756
C               -1.2593     -0.4596      0.8431
C               -0.9489      1.0398      0.9764
C               -1.0114     -0.8051     -0.6362
C                0.4703      1.1995     -0.2310
O                1.7225      0.1930      1.5795
H               -0.5992     -1.0417      1.4744
H               -1.6631      1.6767      0.4758
H               -1.7772     -0.3208     -1.2328
H                0.2662      2.1366     -0.6929
H                1.1562     -0.8088     -0.6341
H                1.3271      2.2224      1.5800
H               -2.2823     -0.6562      1.1408
H               -0.8379      1.3837      1.9974
C               -1.0216     -2.3109     -0.9186
N                2.2433      1.5610     -1.3865
H               -0.2709     -2.8163     -0.3208
H               -0.8180     -2.5109     -1.9643
H               -1.9897     -2.7361     -0.6821
H                2.0874      0.2117      2.4905
N                3.1654      1.7508     -1.9232
23
P18 HEAT OF FORMATION = -284620.47666 KCAL = -1190851.23976 KJ
H                0.4572      0.0173     -2.0244
C                0.3492     -0.1554     -0.9644
C                1.2457      1.2540      1.0774
C               -1.2804     -0.4545      0.8368
C               -0.9695      1.0465      0.9550
C               -1.0172     -0.8078     -0.6384
C                0.4412      1.2001     -0.1988
O                1.7343      0.1897      1.5756
H               -0.6236     -1.0318      1.4764
H               -1.7019      1.6741      0.4685
H               -1.7811     -0.3323     -1.2443
H                0.2829      2.1399     -0.6743
H                1.1502     -0.7999     -0.6288
H                1.3626      2.2121      1.5848
H               -2.3047     -0.6525      1.1277
H               -0.8397      1.3978      1.9720
C               -1.0138     -2.3153     -0.9132
N                2.2718      1.5597     -1.3484
H               -0.2657     -2.8123     -0.3050
H               -0.7976     -2.5190     -1.9557
H               -1.9811     -2.7467     -0.6848
H                2.1353      0.2036      2.4715
N                3.1459      1.7329     -1.9651
23
P19 HEAT OF FORMATION = -284625.24622 KCAL = -1190871.19561 KJ
H                0.4411      0.0388     -2.0178
C                0.3329     -0.1476     -0.9600
C                1.2671      1.2485      1.0653
C               -1.3008     -0.4511      0.8328
C               -0.9900      1.0519      0.9332
C               -1.0291     -0.8135     -0.6389
C                0.4063      1.1991     -0.1736
O                1.7553      0.1898      1.5535
H               -0.6434     -1.0218      1.4784
H               -1.7381      1.6684      0.4559
H               -1.7947     -0.3486     -1.2510
H                0.2855      2.1382     -0.6627
H                1.1378     -0.7916     -0.6328
H                1.4062      2.2054      1.5689
H               -2.3248     -0.6509      1.1223
H               -0.8475      1.4125      1.9459
C               -1.0115     -2.3228     -0.9043
N                2.2943      1.5629     -1.3145
H               -0.2620     -2.8095     -0.2893
H               -0.7883     -2.5311     -1.9444
H               -1.9760     -2.7614     -0.6778
H                2.2011      0.2004      2.4280
N                3.1785      1.7338     -1.9172
23
P20 HEAT OF FORMATION = -284629.87978 KCAL = -1190890.58241 KJ
H                0.4235      0.0601     -2.0104
C                0.3154     -0.1404     -0.9550
C                1.2887      1.2420      1.0501
C               -1.3219     -0.4479      0.8294
C               -1.0104      1.0565      0.9118
C               -1.0422     -0.8196     -0.6389
C                0.3716      1.1966     -0.1476
O                1.7774      0.1891      1.5279
H               -0.6640     -1.0119      1.4811
H               -1.7700      1.6613      0.4373
H               -1.8093     -0.3654     -1.2570
H                0.2840      2.1335     -0.6499
H                1.1240     -0.7843     -0.6365
H                1.4583      2.1995      1.5424
H               -2.3457     -0.6488      1.1178
H               -0.8639      1.4275      1.9209
C               -1.0102     -2.3305     -0.8946
N                2.3196      1.5701     -1.2721
H               -0.2594     -2.8067     -0.2729
H               -0.7801     -2.5434     -1.9323
H               -1.9719     -2.7762     -0.6698
H                2.2718      0.1972      2.3760
N                3.2147      1.7419     -1.8580
23
P21 HEAT OF FORMATION = -284634.12120 KCAL = -1190908.32848 KJ
H                0.4052      0.0809     -2.0016
C                0.2974     -0.1343     -0.9489
C                1.3116      1.2343      1.0319
C               -1.3442     -0.4451      0.8264
C               -1.0295      1.0600      0.8914
C               -1.0560     -0.8262     -0.6383
C                0.3381      1.1923     -0.1202
O                1.7980      0.1870      1.5023
H               -0.6872     -1.0029      1.4847
H               -1.7963      1.6535      0.4136
H               -1.8241     -0.3827     -1.2627
H                0.2792      2.1259     -0.6351
H                1.1094     -0.7784     -0.6395
H                1.5204      2.1944      1.5031
H               -2.3684     -0.6453      1.1127
H               -0.8871      1.4417      1.8974
C               -1.0097     -2.3386     -0.8842
N                2.3463      1.5825     -1.2237
H               -0.2578     -2.8043     -0.2557
H               -0.7729     -2.5562     -1.9194
H               -1.9685     -2.7912     -0.6608
H                2.3441      0.1938      2.3181
N                3.2522      1.7589     -1.7913
23
P22 HEAT OF FORMATION = -284637.71117 KCAL = -1190923.34891 KJ
H                0.3881      0.1009     -1.9902
C                0.2801     -0.1291     -0.9405
C                1.3365      1.2256      1.0115
C               -1.3669     -0.4430      0.8240
C               -1.0467      1.0621      0.8722
C               -1.0698     -0.8329     -0.6369
C                0.3069      1.1864     -0.0906
O                1.8155      0.1841      1.4800
H               -0.7121     -0.9955      1.4894
H               -1.8165      1.6444      0.3849
H               -1.8380     -0.3992     -1.2680
H                0.2718      2.1159     -0.6176
H                1.0946     -0.7742     -0.6398
H                1.5915      2.1894      1.4508
H               -2.3921     -0.6404      1.1075
H               -0.9161      1.4550      1.8756
C               -1.0099     -2.3465     -0.8740
N                2.3724      1.5996     -1.1740
H               -0.2584     -2.8026     -0.2380
H               -0.7649     -2.5683     -1.9064
H               -1.9665     -2.8053     -0.6537
H                2.4134      0.1898      2.2586
N                3.2871      1.7838     -1.7246
23
P23 HEAT OF FORMATION = -284640.35053 KCAL = -1190934.39197 KJ
H                0.3698      0.1267     -1.9757
C                0.2635     -0.1213     -0.9298
C                1.3617      1.2133      0.9945
C               -1.3912     -0.4396      0.8216
C               -1.0633      1.0648      0.8533
C               -1.0822     -0.8385     -0.6348
C                0.2792      1.1806     -0.0556
O                1.8332      0.1767      1.4595
H               -0.7412     -0.9873      1.4960
H               -1.8305      1.6356      0.3476
H               -1.8500     -0.4161     -1.2738
H                0.2657      2.1072     -0.5918
H                1.0811     -0.7680     -0.6414
H                1.6619      2.1784      1.4005
H               -2.4185     -0.6324      1.0995
H               -0.9554      1.4705      1.8542
C               -1.0058     -2.3531     -0.8622
N                2.3945      1.6151     -1.1326
H               -0.2546     -2.7979     -0.2180
H               -0.7516     -2.5789     -1.8916
H               -1.9595     -2.8195     -0.6456
H                2.4794      0.1773      2.1986
N                3.3138      1.8065     -1.6725
23
P24 HEAT OF FORMATION = -284641.68080 KCAL = -1190939.95785 KJ
H                0.3471      0.1630     -1.9581
C                0.2473     -0.1085     -0.9174
C                1.3855      1.1945      0.9852
C               -1.4182     -0.4332      0.8185
C               -1.0811      1.0699      0.8329
C               -1.0923     -0.8425     -0.6316
C                0.2552      1.1753     -0.0136
O                1.8551      0.1607      1.4363
H               -0.7764     -0.9756      1.5053
H               -1.8384      1.6278      0.2981
H               -1.8595     -0.4351     -1.2807
H                0.2644      2.1014     -0.5539
H                1.0702     -0.7568     -0.6486
H                1.7237      2.1571      1.3657
H               -2.4489     -0.6198      1.0871
H               -1.0081      1.4916      1.8303
C               -0.9945     -2.3580     -0.8464
N                2.4106      1.6264     -1.1042
H               -0.2444     -2.7883     -0.1911
H               -0.7273     -2.5888     -1.8713
H               -1.9445     -2.8345     -0.6353
H                2.5448      0.1502      2.1349
N                3.3298      1.8231     -1.6422
23
P25 HEAT OF FORMATION = -284641.31885 KCAL = -1190938.44344 KJ
H                0.3178      0.2107     -1.9375
C                0.2309     -0.0912     -0.9040
C                1.4074      1.1663      0.9839
C               -1.4498     -0.4226      0.8137
C               -1.1001      1.0781      0.8100
C               -1.1004     -0.8455     -0.6273
C                0.2344      1.1691      0.0354
O                1.8829      0.1325      1.4059
H               -0.8216     -0.9595      1.5176
H               -1.8389      1.6222      0.2359
H               -1.8662     -0.4584     -1.2899
H                0.2703      2.0977     -0.5032
H                1.0617     -0.7403     -0.6643
H                1.7759      2.1231      1.3499
H               -2.4856     -0.6004      1.0672
H               -1.0728      1.5191      1.8012
C               -0.9755     -2.3618     -0.8238
N                2.4208      1.6379     -1.0867
H               -0.2265     -2.7726     -0.1549
H               -0.6928     -2.5999     -1.8430
H               -1.9202     -2.8511     -0.6181
H                2.6130      0.1059      2.0618
N                3.3354      1.8407     -1.6298
