21
P1 HEAT OF FORMATION = -216693.71591 KCAL = -906645.87196 KJ
H                0.7677      0.2163     -2.0537
C                0.5851     -0.0014     -1.0111
C                1.5866      1.4126      0.8434
C               -1.1411     -0.2693      0.6600
C               -0.7980      1.2267      0.7119
C               -0.7909     -0.6783     -0.7802
C                0.5691      1.3131     -0.1752
O                2.1164      0.3671      1.3520
H               -0.5272     -0.8261      1.3597
H               -1.5289      1.8210      0.1828
H               -1.5183     -0.2341     -1.4511
H                0.5473      2.2197     -0.7611
H                1.3659     -0.6576     -0.6519
H                1.8627      2.3758      1.2400
H               -2.1823     -0.4360      0.9032
H               -0.7005      1.6230      1.7158
C               -0.7481     -2.1943     -1.0034
H               -0.0403     -2.6601     -0.3258
H               -0.4532     -2.4271     -2.0200
H               -1.7239     -2.6329     -0.8320
H                2.7519      0.4420      2.0969
21
P2 HEAT OF FORMATION = -216692.77087 KCAL = -906641.91793 KJ
H                0.7647      0.2186     -2.0550
C                0.5832     -0.0004     -1.0126
C                1.5863      1.4100      0.8442
C               -1.1438     -0.2685      0.6581
C               -0.8001      1.2274      0.7090
C               -0.7922     -0.6784     -0.7815
C                0.5671      1.3128     -0.1749
O                2.1174      0.3636      1.3478
H               -0.5305     -0.8249      1.3586
H               -1.5310      1.8209      0.1789
H               -1.5197     -0.2356     -1.4532
H                0.5486      2.2200     -0.7601
H                1.3647     -0.6565     -0.6552
H                1.8606      2.3728      1.2425
H               -2.1852     -0.4352      0.9006
H               -0.7038      1.6245      1.7127
C               -0.7480     -2.1945     -1.0033
H               -0.0389     -2.6587     -0.3262
H               -0.4539     -2.4281     -2.0200
H               -1.7230     -2.6340     -0.8303
H                2.7775      0.4443      2.1199
21
P3 HEAT OF FORMATION = -216690.65131 KCAL = -906633.04970 KJ
H                0.7629      0.2195     -2.0561
C                0.5817     -0.0000     -1.0138
C                1.5859      1.4085      0.8443
C               -1.1455     -0.2682      0.6566
C               -0.8017      1.2278      0.7066
C               -0.7935     -0.6786     -0.7828
C                0.5652      1.3127     -0.1752
O                2.1174      0.3614      1.3444
H               -0.5321     -0.8242      1.3573
H               -1.5330      1.8206      0.1763
H               -1.5210     -0.2363     -1.4547
H                0.5488      2.2201     -0.7603
H                1.3634     -0.6561     -0.6570
H                1.8588      2.3715      1.2433
H               -2.1868     -0.4352      0.8990
H               -0.7060      1.6254      1.7102
C               -0.7487     -2.1947     -1.0041
H               -0.0393     -2.6584     -0.3269
H               -0.4545     -2.4286     -2.0207
H               -1.7234     -2.6347     -0.8309
H                2.8015      0.4472      2.1443
21
P4 HEAT OF FORMATION = -216687.61896 KCAL = -906620.36234 KJ
H                0.7607      0.2206     -2.0574
C                0.5802      0.0005     -1.0151
C                1.5856      1.4070      0.8446
C               -1.1472     -0.2679      0.6553
C               -0.8033      1.2282      0.7040
C               -0.7947     -0.6787     -0.7840
C                0.5632      1.3125     -0.1753
O                2.1177      0.3593      1.3410
H               -0.5334     -0.8234      1.3562
H               -1.5351      1.8200      0.1732
H               -1.5225     -0.2370     -1.4561
H                0.5494      2.2202     -0.7602
H                1.3624     -0.6555     -0.6591
H                1.8571      2.3701      1.2440
H               -2.1884     -0.4353      0.8977
H               -0.7088      1.6267      1.7074
C               -0.7493     -2.1950     -1.0049
H               -0.0399     -2.6582     -0.3273
H               -0.4550     -2.4290     -2.0214
H               -1.7241     -2.6351     -0.8317
H                2.8255      0.4501      2.1690
21
P5 HEAT OF FORMATION = -216683.88210 KCAL = -906604.72736 KJ
H                0.7588      0.2217     -2.0587
C                0.5785      0.0009     -1.0164
C                1.5853      1.4055      0.8449
C               -1.1488     -0.2676      0.6538
C               -0.8050      1.2287      0.7015
C               -0.7960     -0.6790     -0.7853
C                0.5613      1.3125     -0.1755
O                2.1178      0.3571      1.3378
H               -0.5349     -0.8226      1.3551
H               -1.5372      1.8195      0.1702
H               -1.5238     -0.2378     -1.4575
H                0.5496      2.2204     -0.7604
H                1.3610     -0.6551     -0.6612
H                1.8555      2.3685      1.2450
H               -2.1900     -0.4354      0.8962
H               -0.7111      1.6279      1.7048
C               -0.7501     -2.1953     -1.0056
H               -0.0405     -2.6579     -0.3280
H               -0.4555     -2.4295     -2.0220
H               -1.7245     -2.6358     -0.8323
H                2.8495      0.4533      2.1936
21
P6 HEAT OF FORMATION = -216679.60779 KCAL = -906586.84366 KJ
H                0.7565      0.2228     -2.0600
C                0.5771      0.0014     -1.0178
C                1.5850      1.4038      0.8453
C               -1.1505     -0.2673      0.6526
C               -0.8066      1.2291      0.6990
C               -0.7972     -0.6791     -0.7864
C                0.5593      1.3121     -0.1757
O                2.1182      0.3551      1.3345
H               -0.5362     -0.8218      1.3540
H               -1.5392      1.8188      0.1669
H               -1.5254     -0.2385     -1.4588
H                0.5505      2.2203     -0.7602
H                1.3600     -0.6546     -0.6635
H                1.8537      2.3670      1.2459
H               -2.1915     -0.4355      0.8949
H               -0.7141      1.6292      1.7018
C               -0.7507     -2.1955     -1.0064
H               -0.0411     -2.6579     -0.3284
H               -0.4561     -2.4299     -2.0228
H               -1.7253     -2.6362     -0.8332
H                2.8736      0.4566      2.2184
21
P7 HEAT OF FORMATION = -216674.95639 KCAL = -906567.38219 KJ
H                0.7412      0.2357     -2.0674
C                0.5718      0.0075     -1.0249
C                1.5827      1.3933      0.8495
C               -1.1525     -0.2630      0.6511
C               -0.8107      1.2340      0.6915
C               -0.7988     -0.6792     -0.7867
C                0.5579      1.3135     -0.1754
O                2.1173      0.3406      1.3260
H               -0.5373     -0.8139      1.3545
H               -1.5420      1.8191      0.1523
H               -1.5305     -0.2454     -1.4595
H                0.5585      2.2253     -0.7547
H                1.3603     -0.6481     -0.6824
H                1.8483      2.3530      1.2605
H               -2.1932     -0.4326      0.8940
H               -0.7238      1.6405      1.6924
C               -0.7451     -2.1963     -0.9999
H               -0.0318     -2.6518     -0.3212
H               -0.4509     -2.4338     -2.0157
H               -1.7169     -2.6413     -0.8228
H                2.8955      0.4429      2.2390
21
P8 HEAT OF FORMATION = -216669.98953 KCAL = -906546.60089 KJ
H                0.7363      0.2392     -2.0700
C                0.5695      0.0091     -1.0275
C                1.5820      1.3899      0.8506
C               -1.1542     -0.2619      0.6497
C               -0.8128      1.2353      0.6880
C               -0.8001     -0.6794     -0.7877
C                0.5561      1.3136     -0.1756
O                2.1174      0.3363      1.3217
H               -0.5386     -0.8117      1.3537
H               -1.5441      1.8187      0.1470
H               -1.5327     -0.2474     -1.4608
H                0.5605      2.2264     -0.7535
H                1.3595     -0.6464     -0.6881
H                1.8454      2.3489      1.2643
H               -2.1947     -0.4320      0.8927
H               -0.7277      1.6437      1.6883
C               -0.7445     -2.1966     -0.9992
H               -0.0303     -2.6504     -0.3203
H               -0.4504     -2.4349     -2.0149
H               -1.7156     -2.6428     -0.8212
H                2.9190      0.4425      2.2631
21
P9 HEAT OF FORMATION = -216664.81373 KCAL = -906524.94534 KJ
H                0.7328      0.2416     -2.0717
C                0.5676      0.0101     -1.0294
C                1.5814      1.3871      0.8517
C               -1.1563     -0.2611      0.6481
C               -0.8148      1.2362      0.6849
C               -0.8015     -0.6796     -0.7889
C                0.5543      1.3133     -0.1756
O                2.1189      0.3334      1.3173
H               -0.5407     -0.8102      1.3528
H               -1.5461      1.8183      0.1424
H               -1.5344     -0.2489     -1.4624
H                0.5621      2.2268     -0.7526
H                1.3584     -0.6454     -0.6921
H                1.8420      2.3458      1.2677
H               -2.1968     -0.4316      0.8908
H               -0.7314      1.6460      1.6848
C               -0.7445     -2.1969     -0.9992
H               -0.0300     -2.6496     -0.3198
H               -0.4502     -2.4358     -2.0146
H               -1.7153     -2.6438     -0.8208
H                2.9446      0.4443      2.2865
21
P10 HEAT OF FORMATION = -216659.50044 KCAL = -906502.71455 KJ
H                0.7275      0.2454     -2.0745
C                0.5652      0.0119     -1.0321
C                1.5805      1.3835      0.8529
C               -1.1581     -0.2598      0.6466
C               -0.8170      1.2376      0.6813
C               -0.8028     -0.6798     -0.7899
C                0.5525      1.3135     -0.1759
O                2.1193      0.3292      1.3126
H               -0.5422     -0.8078      1.3520
H               -1.5482      1.8181      0.1368
H               -1.5367     -0.2511     -1.4637
H                0.5643      2.2280     -0.7514
H                1.3576     -0.6434     -0.6983
H                1.8385      2.3415      1.2722
H               -2.1985     -0.4309      0.8894
H               -0.7354      1.6494      1.6805
C               -0.7437     -2.1973     -0.9982
H               -0.0282     -2.6479     -0.3185
H               -0.4494     -2.4372     -2.0134
H               -1.7137     -2.6454     -0.8188
H                2.9684      0.4427      2.3104
21
P11 HEAT OF FORMATION = -216654.10852 KCAL = -906480.15476 KJ
H                0.7227      0.2488     -2.0771
C                0.5628      0.0134     -1.0347
C                1.5797      1.3801      0.8541
C               -1.1599     -0.2587      0.6451
C               -0.8191      1.2389      0.6778
C               -0.8042     -0.6800     -0.7910
C                0.5507      1.3135     -0.1761
O                2.1200      0.3256      1.3083
H               -0.5438     -0.8057      1.3512
H               -1.5502      1.8178      0.1315
H               -1.5389     -0.2532     -1.4651
H                0.5664      2.2289     -0.7503
H                1.3567     -0.6418     -0.7040
H                1.8351      2.3375      1.2762
H               -2.2002     -0.4302      0.8879
H               -0.7393      1.6525      1.6765
C               -0.7430     -2.1977     -0.9975
H               -0.0266     -2.6465     -0.3176
H               -0.4488     -2.4384     -2.0125
H               -1.7124     -2.6469     -0.8171
H                2.9925      0.4420      2.3344
21
P12 HEAT OF FORMATION = -216648.68619 KCAL = -906457.46776 KJ
H                0.7178      0.2522     -2.0797
C                0.5605      0.0151     -1.0373
C                1.5788      1.3767      0.8552
C               -1.1618     -0.2576      0.6436
C               -0.8212      1.2402      0.6744
C               -0.8055     -0.6802     -0.7921
C                0.5489      1.3136     -0.1765
O                2.1206      0.3220      1.3039
H               -0.5454     -0.8035      1.3503
H               -1.5523      1.8175      0.1262
H               -1.5410     -0.2553     -1.4664
H                0.5684      2.2299     -0.7493
H                1.3558     -0.6400     -0.7097
H                1.8316      2.3335      1.2802
H               -2.2020     -0.4296      0.8864
H               -0.7432      1.6556      1.6724
C               -0.7424     -2.1980     -0.9967
H               -0.0252     -2.6450     -0.3165
H               -0.4481     -2.4396     -2.0116
H               -1.7111     -2.6484     -0.8155
H                3.0167      0.4408      2.3585
21
P13 HEAT OF FORMATION = -216643.27332 KCAL = -906434.82033 KJ
H                0.7131      0.2554     -2.0821
C                0.5582      0.0166     -1.0398
C                1.5780      1.3733      0.8563
C               -1.1637     -0.2565      0.6421
C               -0.8233      1.2414      0.6709
C               -0.8068     -0.6804     -0.7932
C                0.5470      1.3136     -0.1768
O                2.1215      0.3189      1.2995
H               -0.5472     -0.8014      1.3495
H               -1.5543      1.8173      0.1210
H               -1.5431     -0.2573     -1.4679
H                0.5703      2.2308     -0.7483
H                1.3549     -0.6383     -0.7151
H                1.8279      2.3297      1.2842
H               -2.2038     -0.4289      0.8848
H               -0.7470      1.6585      1.6684
C               -0.7418     -2.1984     -0.9960
H               -0.0238     -2.6436     -0.3154
H               -0.4475     -2.4408     -2.0107
H               -1.7098     -2.6498     -0.8140
H                3.0413      0.4398      2.3825
21
P14 HEAT OF FORMATION = -216637.90231 KCAL = -906412.34802 KJ
H                0.7082      0.2587     -2.0847
C                0.5558      0.0182     -1.0424
C                1.5771      1.3699      0.8574
C               -1.1655     -0.2553      0.6406
C               -0.8254      1.2427      0.6674
C               -0.8081     -0.6806     -0.7943
C                0.5451      1.3137     -0.1772
O                2.1223      0.3158      1.2953
H               -0.5488     -0.7993      1.3486
H               -1.5564      1.8171      0.1158
H               -1.5453     -0.2594     -1.4693
H                0.5723      2.2317     -0.7474
H                1.3539     -0.6365     -0.7207
H                1.8242      2.3258      1.2882
H               -2.2056     -0.4282      0.8832
H               -0.7507      1.6616      1.6643
C               -0.7412     -2.1987     -0.9953
H               -0.0223     -2.6422     -0.3144
H               -0.4469     -2.4420     -2.0097
H               -1.7085     -2.6513     -0.8123
H                3.0656      0.4383      2.4068
21
P15 HEAT OF FORMATION = -216632.59961 KCAL = -906390.16157 KJ
H                0.7038      0.2617     -2.0870
C                0.5536      0.0196     -1.0448
C                1.5762      1.3667      0.8585
C               -1.1676     -0.2542      0.6389
C               -0.8275      1.2439      0.6640
C               -0.8095     -0.6808     -0.7955
C                0.5432      1.3137     -0.1776
O                2.1236      0.3132      1.2910
H               -0.5508     -0.7972      1.3477
H               -1.5584      1.8169      0.1108
H               -1.5473     -0.2614     -1.4708
H                0.5741      2.2325     -0.7465
H                1.3530     -0.6349     -0.7258
H                1.8201      2.3221      1.2923
H               -2.2075     -0.4275      0.8814
H               -0.7545      1.6644      1.6604
C               -0.7407     -2.1991     -0.9947
H               -0.0211     -2.6408     -0.3134
H               -0.4462     -2.4432     -2.0089
H               -1.7074     -2.6527     -0.8110
H                3.0908      0.4371      2.4308
