21
P1 HEAT OF FORMATION = -216707.83321 KCAL = -906704.93873 KJ
H                0.5012     -1.0276     -1.9548
C                0.3525     -0.8290     -0.9025
C                0.4647      0.9118      0.9349
C               -1.4915     -0.6288      0.7701
C               -0.4482     -0.1380      1.6804
C               -1.0955     -1.2282     -0.5317
C                0.5599      0.6669     -0.5956
H                1.4475      0.8373      1.3786
H                0.1678     -0.9987      1.9350
H               -1.7902     -0.9062     -1.3029
H               -0.2353      1.2206     -1.0880
H                1.0665     -1.4278     -0.3498
H                0.0830      1.9034      1.1310
O               -2.7126     -0.5297      1.1405
H               -0.8840      0.2676      2.5793
H               -1.1969     -2.3111     -0.4362
C                1.9085      1.1712     -1.1353
H                2.7258      0.5997     -0.7093
H                2.0547      2.2151     -0.8843
H                1.9486      1.0774     -2.2137
H               -3.4263     -0.8460      0.5547
21
P2 HEAT OF FORMATION = -216707.12135 KCAL = -906701.96031 KJ
H                0.5018     -1.0262     -1.9539
C                0.3527     -0.8272     -0.9017
C                0.4655      0.9138      0.9352
C               -1.4918     -0.6284      0.7715
C               -0.4474     -0.1351      1.6809
C               -1.0957     -1.2249     -0.5316
C                0.5618      0.6683     -0.5951
H                1.4483      0.8396      1.3791
H                0.1682     -0.9959      1.9362
H               -1.7899     -0.8995     -1.3021
H               -0.2322      1.2230     -1.0884
H                1.0657     -1.4267     -0.3485
H                0.0843      1.9060      1.1305
O               -2.7118     -0.5364      1.1462
H               -0.8830      0.2706      2.5800
H               -1.1988     -2.3079     -0.4387
C                1.9117      1.1702     -1.1338
H                2.7276      0.5976     -0.7066
H                2.0594      2.2139     -0.8834
H                1.9528      1.0754     -2.2121
H               -3.4492     -0.8701      0.5363
21
P3 HEAT OF FORMATION = -216705.15767 KCAL = -906693.74425 KJ
H                0.5031     -1.0256     -1.9529
C                0.3538     -0.8266     -0.9007
C                0.4665      0.9144      0.9362
C               -1.4916     -0.6277      0.7721
C               -0.4460     -0.1344      1.6815
C               -1.0944     -1.2246     -0.5306
C                0.5629      0.6689     -0.5940
H                1.4495      0.8404      1.3802
H                0.1689     -0.9957      1.9363
H               -1.7884     -0.8996     -1.3016
H               -0.2310      1.2236     -1.0875
H                1.0669     -1.4261     -0.3475
H                0.0852      1.9067      1.1314
O               -2.7104     -0.5347      1.1487
H               -0.8811      0.2708      2.5812
H               -1.1972     -2.3074     -0.4372
C                1.9129      1.1707     -1.1326
H                2.7288      0.5980     -0.7052
H                2.0607      2.2144     -0.8819
H                1.9543      1.0762     -2.2108
H               -3.4734     -0.8818      0.5149
21
P4 HEAT OF FORMATION = -216702.22300 KCAL = -906681.46563 KJ
H                0.5047     -1.0251     -1.9517
C                0.3549     -0.8261     -0.8996
C                0.4675      0.9150      0.9372
C               -1.4916     -0.6270      0.7727
C               -0.4444     -0.1339      1.6823
C               -1.0934     -1.2238     -0.5299
C                0.5641      0.6694     -0.5930
H                1.4505      0.8412      1.3811
H                0.1698     -0.9955      1.9369
H               -1.7869     -0.8982     -1.3009
H               -0.2297      1.2241     -1.0866
H                1.0678     -1.4255     -0.3460
H                0.0861      1.9073      1.1321
O               -2.7088     -0.5338      1.1514
H               -0.8789      0.2712      2.5822
H               -1.1962     -2.3067     -0.4362
C                1.9142      1.1712     -1.1313
H                2.7301      0.5990     -0.7032
H                2.0616      2.2152     -0.8811
H                1.9559      1.0760     -2.2095
H               -3.4972     -0.8939      0.4932
21
P5 HEAT OF FORMATION = -216698.54056 KCAL = -906666.05827 KJ
H                0.5061     -1.0247     -1.9505
C                0.3560     -0.8256     -0.8985
C                0.4682      0.9155      0.9383
C               -1.4912     -0.6265      0.7736
C               -0.4429     -0.1333      1.6832
C               -1.0922     -1.2233     -0.5288
C                0.5651      0.6699     -0.5919
H                1.4514      0.8426      1.3822
H                0.1709     -0.9953      1.9374
H               -1.7855     -0.8970     -1.2998
H               -0.2285      1.2246     -1.0857
H                1.0688     -1.4251     -0.3447
H                0.0867      1.9078      1.1329
O               -2.7070     -0.5323      1.1538
H               -0.8771      0.2716      2.5835
H               -1.1952     -2.3058     -0.4355
C                1.9153      1.1716     -1.1302
H                2.7310      0.5993     -0.7020
H                2.0628      2.2155     -0.8799
H                1.9574      1.0766     -2.2084
H               -3.5202     -0.9060      0.4708
21
P6 HEAT OF FORMATION = -216694.30621 KCAL = -906648.34177 KJ
H                0.5069     -1.0242     -1.9492
C                0.3562     -0.8247     -0.8973
C                0.4689      0.9173      0.9388
C               -1.4912     -0.6263      0.7756
C               -0.4414     -0.1309      1.6843
C               -1.0925     -1.2197     -0.5287
C                0.5670      0.6706     -0.5912
H                1.4518      0.8458      1.3833
H                0.1718     -0.9933      1.9395
H               -1.7847     -0.8867     -1.2982
H               -0.2256      1.2259     -1.0858
H                1.0677     -1.4251     -0.3429
H                0.0865      1.9093      1.1321
O               -2.7055     -0.5373      1.1591
H               -0.8751      0.2747      2.5845
H               -1.1996     -2.3024     -0.4402
C                1.9181      1.1706     -1.1286
H                2.7331      0.5983     -0.6989
H                2.0660      2.2148     -0.8796
H                1.9610      1.0740     -2.2067
H               -3.5396     -0.9307      0.4503
21
P7 HEAT OF FORMATION = -216689.63470 KCAL = -906628.79621 KJ
H                0.5085     -1.0243     -1.9476
C                0.3576     -0.8246     -0.8958
C                0.4698      0.9177      0.9401
C               -1.4909     -0.6255      0.7766
C               -0.4396     -0.1310      1.6857
C               -1.0910     -1.2198     -0.5272
C                0.5677      0.6709     -0.5899
H                1.4529      0.8467      1.3843
H                0.1732     -0.9937      1.9402
H               -1.7830     -0.8870     -1.2968
H               -0.2252      1.2259     -1.0845
H                1.0692     -1.4245     -0.3410
H                0.0870      1.9097      1.1334
O               -2.7039     -0.5341      1.1602
H               -0.8725      0.2742      2.5865
H               -1.1976     -2.3024     -0.4377
C                1.9185      1.1714     -1.1278
H                2.7336      0.5986     -0.6993
H                2.0668      2.2152     -0.8778
H                1.9607      1.0760     -2.2059
H               -3.5615     -0.9395      0.4243
21
P8 HEAT OF FORMATION = -216684.64738 KCAL = -906607.92926 KJ
H                0.5095     -1.0235     -1.9465
C                0.3583     -0.8237     -0.8947
C                0.4707      0.9185      0.9411
C               -1.4910     -0.6249      0.7778
C               -0.4381     -0.1298      1.6867
C               -1.0904     -1.2184     -0.5264
C                0.5690      0.6716     -0.5889
H                1.4539      0.8480      1.3853
H                0.1739     -0.9931      1.9409
H               -1.7820     -0.8835     -1.2955
H               -0.2235      1.2268     -1.0838
H                1.0696     -1.4239     -0.3399
H                0.0880      1.9107      1.1339
O               -2.7024     -0.5348      1.1634
H               -0.8705      0.2755      2.5877
H               -1.1980     -2.3009     -0.4380
C                1.9201      1.1715     -1.1265
H                2.7350      0.5990     -0.6968
H                2.0682      2.2156     -0.8774
H                1.9631      1.0749     -2.2046
H               -3.5834     -0.9556      0.4022
21
P9 HEAT OF FORMATION = -216679.44276 KCAL = -906586.15315 KJ
H                0.5110     -1.0233     -1.9451
C                0.3593     -0.8233     -0.8934
C                0.4714      0.9193      0.9421
C               -1.4909     -0.6241      0.7790
C               -0.4363     -0.1293      1.6878
C               -1.0894     -1.2175     -0.5254
C                0.5701      0.6720     -0.5878
H                1.4547      0.8497      1.3863
H                0.1753     -0.9929      1.9413
H               -1.7808     -0.8816     -1.2943
H               -0.2224      1.2272     -1.0829
H                1.0703     -1.4235     -0.3381
H                0.0881      1.9113      1.1346
O               -2.7008     -0.5335      1.1655
H               -0.8678      0.2757      2.5894
H               -1.1976     -2.2999     -0.4370
C                1.9213      1.1718     -1.1253
H                2.7360      0.5991     -0.6958
H                2.0696      2.2158     -0.8760
H                1.9642      1.0755     -2.2034
H               -3.6053     -0.9685      0.3785
21
P10 HEAT OF FORMATION = -216674.09004 KCAL = -906563.75737 KJ
H                0.5121     -1.0228     -1.9438
C                0.3602     -0.8227     -0.8921
C                0.4722      0.9202      0.9431
C               -1.4909     -0.6234      0.7802
C               -0.4347     -0.1284      1.6890
C               -1.0886     -1.2163     -0.5244
C                0.5712      0.6726     -0.5868
H                1.4556      0.8513      1.3874
H                0.1764     -0.9925      1.9420
H               -1.7797     -0.8786     -1.2929
H               -0.2210      1.2279     -1.0822
H                1.0709     -1.4231     -0.3367
H                0.0885      1.9122      1.1351
O               -2.6992     -0.5333      1.1680
H               -0.8655      0.2765      2.5909
H               -1.1977     -2.2986     -0.4368
C                1.9227      1.1719     -1.1241
H                2.7371      0.5992     -0.6941
H                2.0711      2.2160     -0.8749
H                1.9660      1.0753     -2.2022
H               -3.6267     -0.9836      0.3553
21
P11 HEAT OF FORMATION = -216668.65273 KCAL = -906541.00770 KJ
H                0.5133     -1.0225     -1.9424
C                0.3611     -0.8222     -0.8908
C                0.4732      0.9208      0.9443
C               -1.4909     -0.6225      0.7815
C               -0.4329     -0.1277      1.6903
C               -1.0876     -1.2155     -0.5233
C                0.5723      0.6731     -0.5856
H                1.4567      0.8523      1.3884
H                0.1775     -0.9924      1.9427
H               -1.7786     -0.8766     -1.2914
H               -0.2199      1.2283     -1.0810
H                1.0717     -1.4226     -0.3351
H                0.0893      1.9128      1.1360
O               -2.6977     -0.5322      1.1697
H               -0.8630      0.2772      2.5926
H               -1.1973     -2.2977     -0.4357
C                1.9237      1.1724     -1.1230
H                2.7382      0.5997     -0.6930
H                2.0722      2.2165     -0.8740
H                1.9669      1.0756     -2.2011
H               -3.6482     -0.9968      0.3307
21
P12 HEAT OF FORMATION = -216663.18128 KCAL = -906518.11516 KJ
H                0.5146     -1.0221     -1.9410
C                0.3620     -0.8217     -0.8894
C                0.4742      0.9214      0.9454
C               -1.4910     -0.6216      0.7828
C               -0.4312     -0.1269      1.6917
C               -1.0866     -1.2146     -0.5221
C                0.5733      0.6736     -0.5844
H                1.4578      0.8533      1.3893
H                0.1785     -0.9922      1.9435
H               -1.7774     -0.8745     -1.2899
H               -0.2189      1.2288     -1.0798
H                1.0725     -1.4221     -0.3335
H                0.0903      1.9134      1.1370
O               -2.6962     -0.5313      1.1714
H               -0.8605      0.2779      2.5944
H               -1.1969     -2.2967     -0.4346
C                1.9247      1.1728     -1.1220
H                2.7392      0.6001     -0.6920
H                2.0733      2.2168     -0.8730
H                1.9679      1.0759     -2.2000
H               -3.6695     -1.0105      0.3061
21
P13 HEAT OF FORMATION = -216657.71681 KCAL = -906495.25183 KJ
H                0.5156     -1.0216     -1.9396
C                0.3629     -0.8212     -0.8881
C                0.4752      0.9221      0.9466
C               -1.4911     -0.6207      0.7842
C               -0.4294     -0.1262      1.6930
C               -1.0856     -1.2138     -0.5209
C                0.5743      0.6741     -0.5832
H                1.4590      0.8546      1.3904
H                0.1796     -0.9921      1.9442
H               -1.7764     -0.8726     -1.2883
H               -0.2178      1.2293     -1.0788
H                1.0732     -1.4215     -0.3321
H                0.0912      1.9141      1.1379
O               -2.6947     -0.5303      1.1729
H               -0.8578      0.2785      2.5962
H               -1.1965     -2.2958     -0.4334
C                1.9257      1.1732     -1.1208
H                2.7402      0.6005     -0.6907
H                2.0743      2.2173     -0.8721
H                1.9690      1.0761     -2.1988
H               -3.6908     -1.0241      0.2813
21
P14 HEAT OF FORMATION = -216652.29328 KCAL = -906472.55982 KJ
H                0.5167     -1.0212     -1.9382
C                0.3637     -0.8207     -0.8867
C                0.4763      0.9228      0.9478
C               -1.4913     -0.6197      0.7856
C               -0.4276     -0.1253      1.6944
C               -1.0846     -1.2129     -0.5196
C                0.5753      0.6746     -0.5820
H                1.4602      0.8555      1.3914
H                0.1806     -0.9919      1.9450
H               -1.7755     -0.8705     -1.2866
H               -0.2168      1.2299     -1.0775
H                1.0740     -1.4211     -0.3306
H                0.0922      1.9148      1.1389
O               -2.6932     -0.5294      1.1743
H               -0.8552      0.2793      2.5979
H               -1.1961     -2.2947     -0.4321
C                1.9267      1.1735     -1.1197
H                2.7412      0.6009     -0.6897
H                2.0754      2.2177     -0.8710
H                1.9699      1.0764     -2.1978
H               -3.7119     -1.0381      0.2563
21
P15 HEAT OF FORMATION = -216646.93756 KCAL = -906450.15149 KJ
H                0.5178     -1.0207     -1.9368
C                0.3647     -0.8202     -0.8853
C                0.4774      0.9232      0.9491
C               -1.4915     -0.6185      0.7871
C               -0.4258     -0.1246      1.6959
C               -1.0835     -1.2122     -0.5182
C                0.5763      0.6751     -0.5807
H                1.4616      0.8561      1.3924
H                0.1815     -0.9919      1.9458
H               -1.7745     -0.8692     -1.2849
H               -0.2160      1.2303     -1.0760
H                1.0749     -1.4205     -0.3291
H                0.0936      1.9154      1.1401
O               -2.6918     -0.5279      1.1751
H               -0.8526      0.2800      2.5998
H               -1.1953     -2.2939     -0.4302
C                1.9275      1.1741     -1.1188
H                2.7420      0.6014     -0.6889
H                2.0762      2.2182     -0.8700
H                1.9704      1.0770     -2.1968
H               -3.7329     -1.0512      0.2304
