8
P1 HEAT OF FORMATION = -1655465.79032 KCAL = -6926464.01251 KJ
H                0.9942      0.7179      0.9267
C                0.8734     -0.0525      0.1794
C               -0.2677      0.1657     -0.6630
H                0.8504     -1.0274      0.6486
H                1.7642     -0.0335     -0.4638
H               -0.6510      1.1497     -0.8435
H               -0.6829     -0.6299     -1.2487
Br              -2.8806     -0.2900      1.4643
8
P2 HEAT OF FORMATION = -1655469.38570 KCAL = -6926479.05558 KJ
H                0.9876      0.7154      0.9334
C                0.8691     -0.0542      0.1853
C               -0.2788      0.1632     -0.6560
H                0.8463     -1.0287      0.6546
H                1.7582     -0.0330     -0.4591
H               -0.6590      1.1479     -0.8384
H               -0.6888     -0.6310     -1.2467
Br              -2.8345     -0.2796      1.4269
8
P3 HEAT OF FORMATION = -1655473.11738 KCAL = -6926494.66890 KJ
H                0.9794      0.7119      0.9417
C                0.8634     -0.0566      0.1920
C               -0.2905      0.1613     -0.6491
H                0.8412     -1.0309      0.6604
H                1.7508     -0.0308     -0.4534
H               -0.6638      1.1471     -0.8389
H               -0.6945     -0.6316     -1.2453
Br              -2.7861     -0.2704      1.3926
8
P4 HEAT OF FORMATION = -1655476.98862 KCAL = -6926510.86614 KJ
H                0.9688      0.7073      0.9516
C                0.8570     -0.0588      0.1988
C               -0.3026      0.1589     -0.6423
H                0.8378     -1.0343      0.6646
H                1.7428     -0.0268     -0.4474
H               -0.6675      1.1459     -0.8407
H               -0.6993     -0.6329     -1.2445
Br              -2.7371     -0.2593      1.3599
8
P5 HEAT OF FORMATION = -1655481.00255 KCAL = -6926527.66041 KJ
H                0.9573      0.7013      0.9624
C                0.8513     -0.0612      0.2054
C               -0.3152      0.1552     -0.6348
H                0.8366     -1.0386      0.6666
H                1.7354     -0.0196     -0.4414
H               -0.6716      1.1432     -0.8416
H               -0.7037     -0.6352     -1.2438
Br              -2.6900     -0.2451      1.3271
8
P6 HEAT OF FORMATION = -1655485.16193 KCAL = -6926545.06327 KJ
H                0.9427      0.6926      0.9757
C                0.8455     -0.0642      0.2117
C               -0.3283      0.1499     -0.6269
H                0.8389     -1.0447      0.6654
H                1.7280     -0.0069     -0.4349
H               -0.6742      1.1392     -0.8439
H               -0.7087     -0.6391     -1.2423
Br              -2.6439     -0.2267      1.2952
8
P7 HEAT OF FORMATION = -1655489.46552 KCAL = -6926563.06948 KJ
H                0.9255      0.6811      0.9913
C                0.8395     -0.0677      0.2180
C               -0.3419      0.1438     -0.6188
H                0.8444     -1.0527      0.6611
H                1.7203      0.0108     -0.4278
H               -0.6748      1.1345     -0.8488
H               -0.7148     -0.6445     -1.2391
Br              -2.5983     -0.2054      1.2641
8
P8 HEAT OF FORMATION = -1655493.90817 KCAL = -6926581.65749 KJ
H                0.9123      0.6699      1.0059
C                0.8349     -0.0709      0.2240
C               -0.3559      0.1382     -0.6083
H                0.8523     -1.0603      0.6569
H                1.7122      0.0282     -0.4227
H               -0.6753      1.1300     -0.8523
H               -0.7224     -0.6504     -1.2325
Br              -2.5581     -0.1848      1.2288
8
P9 HEAT OF FORMATION = -1655498.48046 KCAL = -6926600.78794 KJ
H                0.9001      0.6602      1.0192
C                0.8295     -0.0734      0.2300
C               -0.3700      0.1343     -0.5983
H                0.8558     -1.0660      0.6545
H                1.7039      0.0420     -0.4167
H               -0.6738      1.1271     -0.8583
H               -0.7301     -0.6548     -1.2256
Br              -2.5154     -0.1695      1.1951
8
P10 HEAT OF FORMATION = -1655503.16984 KCAL = -6926620.40830 KJ
H                0.8934      0.6543      1.0296
C                0.8242     -0.0748      0.2363
C               -0.3850      0.1317     -0.5867
H                0.8555     -1.0690      0.6563
H                1.6944      0.0486     -0.4131
H               -0.6738      1.1251     -0.8617
H               -0.7342     -0.6567     -1.2212
Br              -2.4745     -0.1592      1.1604
8
P11 HEAT OF FORMATION = -1655507.96289 KCAL = -6926640.46239 KJ
H                0.8971      0.6590      1.0318
C                0.8181     -0.0743      0.2434
C               -0.4008      0.1323     -0.5736
H                0.8439     -1.0659      0.6697
H                1.6835      0.0364     -0.4136
H               -0.6779      1.1262     -0.8588
H               -0.7303     -0.6513     -1.2245
Br              -2.4337     -0.1625      1.1254
8
P12 HEAT OF FORMATION = -1655512.82276 KCAL = -6926660.79610 KJ
H                0.8920      0.6561      1.0396
C                0.8121     -0.0755      0.2495
C               -0.4169      0.1292     -0.5612
H                0.8416     -1.0674      0.6749
H                1.6738      0.0381     -0.4109
H               -0.6792      1.1238     -0.8593
H               -0.7302     -0.6504     -1.2249
Br              -2.3932     -0.1539      1.0923
8
P13 HEAT OF FORMATION = -1655517.70397 KCAL = -6926681.21908 KJ
H                0.8901      0.6554      1.0448
C                0.8064     -0.0767      0.2555
C               -0.4336      0.1271     -0.5474
H                0.8388     -1.0679      0.6829
H                1.6630      0.0370     -0.4102
H               -0.6787      1.1223     -0.8582
H               -0.7301     -0.6481     -1.2245
Br              -2.3558     -0.1491      1.0571
8
P14 HEAT OF FORMATION = -1655522.53819 KCAL = -6926701.44541 KJ
H                0.8875      0.6543      1.0503
C                0.8003     -0.0780      0.2613
C               -0.4508      0.1246     -0.5335
H                0.8363     -1.0685      0.6902
H                1.6520      0.0367     -0.4092
H               -0.6772      1.1205     -0.8578
H               -0.7298     -0.6457     -1.2240
Br              -2.3182     -0.1439      1.0226
8
P15 HEAT OF FORMATION = -1655527.22870 KCAL = -6926721.07049 KJ
H                0.8848      0.6531      1.0557
C                0.7942     -0.0791      0.2667
C               -0.4682      0.1220     -0.5191
H                0.8337     -1.0691      0.6972
H                1.6411      0.0363     -0.4085
H               -0.6760      1.1181     -0.8568
H               -0.7284     -0.6433     -1.2234
Br              -2.2812     -0.1380      0.9882
8
P16 HEAT OF FORMATION = -1655531.64204 KCAL = -6926739.53590 KJ
H                0.8824      0.6519      1.0609
C                0.7883     -0.0804      0.2720
C               -0.4860      0.1191     -0.5041
H                0.8321     -1.0698      0.7038
H                1.6299      0.0365     -0.4082
H               -0.6738      1.1152     -0.8554
H               -0.7270     -0.6406     -1.2220
Br              -2.2459     -0.1319      0.9531
8
P17 HEAT OF FORMATION = -1655535.59943 KCAL = -6926756.09361 KJ
H                0.8800      0.6512      1.0655
C                0.7819     -0.0814      0.2771
C               -0.5040      0.1166     -0.4893
H                0.8291     -1.0702      0.7107
H                1.6188      0.0356     -0.4079
H               -0.6717      1.1122     -0.8538
H               -0.7242     -0.6373     -1.2211
Br              -2.2098     -0.1267      0.9188
8
P18 HEAT OF FORMATION = -1655538.86104 KCAL = -6926769.74017 KJ
H                0.8782      0.6507      1.0698
C                0.7758     -0.0824      0.2821
C               -0.5221      0.1137     -0.4737
H                0.8272     -1.0706      0.7175
H                1.6067      0.0352     -0.4087
H               -0.6684      1.1085     -0.8512
H               -0.7216     -0.6338     -1.2187
Br              -2.1758     -0.1213      0.8829
8
P19 HEAT OF FORMATION = -1655541.11637 KCAL = -6926779.17648 KJ
H                0.8767      0.6494      1.0753
C                0.7696     -0.0829      0.2871
C               -0.5405      0.1110     -0.4575
H                0.8241     -1.0712      0.7221
H                1.5945      0.0354     -0.4098
H               -0.6655      1.1039     -0.8496
H               -0.7166     -0.6308     -1.2151
Br              -2.1422     -0.1149      0.8476
8
P20 HEAT OF FORMATION = -1655541.96106 KCAL = -6926782.71067 KJ
H                0.8743      0.6472      1.0814
C                0.7632     -0.0834      0.2917
C               -0.5592      0.1085     -0.4412
H                0.8219     -1.0724      0.7253
H                1.5825      0.0373     -0.4104
H               -0.6614      1.0987     -0.8494
H               -0.7125     -0.6281     -1.2100
Br              -2.1088     -0.1077      0.8126
