18
P1 HEAT OF FORMATION = -28.58278 KCAL = -119.59026 KJ
H               -1.2141      0.8674      1.5794
C               -0.9180      0.7866      0.5216
C               -0.2241      0.5277     -2.1689
C                0.1601     -0.0242      0.1537
C               -1.6350      1.4770     -0.4550
C               -1.2880      1.3508     -1.7997
C                0.4979     -0.1624     -1.1962
C                0.9243     -0.7905      1.2174
H               -2.4798      2.1173     -0.1612
H               -1.8548      1.8964     -2.5685
H                1.3398     -0.8070     -1.4923
H                0.0478      0.4206     -3.2293
N                0.6147     -2.1921      1.2100
O                0.6543     -0.3206      2.5297
Cl               2.7037     -0.4809      0.9049
H                0.9122     -2.6553      2.0430
H                0.9395     -2.6427      0.3819
H                0.8194      0.6319      2.5294
18
P2 HEAT OF FORMATION = -28.96830 KCAL = -121.20327 KJ
H               -1.2160      0.8851      1.5805
C               -0.9215      0.7956      0.5231
C               -0.2282      0.5189     -2.1661
C                0.1500     -0.0260      0.1591
C               -1.6334      1.4860     -0.4571
C               -1.2873      1.3502     -1.8011
C                0.4889     -0.1714     -1.1899
C                0.9045     -0.7937      1.2237
H               -2.4734      2.1340     -0.1666
H               -1.8506      1.8954     -2.5729
H                1.3289     -0.8203     -1.4816
H                0.0437      0.4054     -3.2258
N                0.6303     -2.1963      1.2066
O                0.6455     -0.3307      2.5357
Cl               2.7194     -0.4572      0.9039
H                0.9514     -2.6660      2.0268
H                0.9353     -2.6311      0.3630
H                0.8123      0.6222      2.5388
18
P3 HEAT OF FORMATION = -28.88417 KCAL = -120.85129 KJ
H               -1.2225      0.8939      1.5809
C               -0.9282      0.7990      0.5240
C               -0.2300      0.5141     -2.1634
C                0.1387     -0.0304      0.1633
C               -1.6341      1.4914     -0.4589
C               -1.2855      1.3514     -1.8020
C                0.4807     -0.1791     -1.1847
C                0.8850     -0.7980      1.2290
H               -2.4708      2.1450     -0.1715
H               -1.8438      1.8988     -2.5759
H                1.3201     -0.8310     -1.4728
H                0.0448      0.3988     -3.2221
N                0.6438     -2.2002      1.2091
O                0.6424     -0.3355      2.5396
Cl               2.7347     -0.4381      0.8956
H                0.9901     -2.6723      2.0170
H                0.9229     -2.6252      0.3518
H                0.8118      0.6173      2.5409
18
P4 HEAT OF FORMATION = -28.42273 KCAL = -118.92064 KJ
H               -1.2257      0.9072      1.5817
C               -0.9323      0.8055      0.5250
C               -0.2351      0.5060     -2.1613
C                0.1271     -0.0351      0.1672
C               -1.6317      1.5008     -0.4604
C               -1.2837      1.3534     -1.8030
C                0.4694     -0.1903     -1.1802
C                0.8654     -0.8027      1.2339
H               -2.4625      2.1632     -0.1755
H               -1.8367      1.9036     -2.5787
H                1.3054     -0.8480     -1.4650
H                0.0399      0.3860     -3.2195
N                0.6627     -2.2049      1.2061
O                0.6324     -0.3453      2.5438
Cl               2.7489     -0.4091      0.8937
H                1.0259     -2.6786      2.0050
H                0.9275     -2.6192      0.3397
H                0.8029      0.6078      2.5473
18
P5 HEAT OF FORMATION = -27.65764 KCAL = -115.71949 KJ
H               -1.2318      0.9139      1.5821
C               -0.9382      0.8083      0.5259
C               -0.2375      0.5013     -2.1589
C                0.1165     -0.0397      0.1708
C               -1.6318      1.5061     -0.4617
C               -1.2822      1.3547     -1.8035
C                0.4615     -0.1976     -1.1757
C                0.8467     -0.8076      1.2384
H               -2.4589      2.1742     -0.1791
H               -1.8305      1.9073     -2.5809
H                1.2968     -0.8577     -1.4575
H                0.0396      0.3793     -3.2165
N                0.6763     -2.2080      1.2067
O                0.6293     -0.3504      2.5469
Cl               2.7647     -0.3893      0.8859
H                1.0565     -2.6821      1.9972
H                0.9214     -2.6157      0.3318
H                0.8018      0.6029      2.5483
18
P6 HEAT OF FORMATION = -26.65076 KCAL = -111.50669 KJ
H               -1.2396      0.9170      1.5822
C               -0.9450      0.8091      0.5266
C               -0.2387      0.4988     -2.1564
C                0.1066     -0.0441      0.1739
C               -1.6334      1.5093     -0.4628
C               -1.2810      1.3560     -1.8037
C                0.4554     -0.2026     -1.1716
C                0.8288     -0.8127      1.2424
H               -2.4581      2.1813     -0.1825
H               -1.8251      1.9108     -2.5826
H                1.2918     -0.8631     -1.4504
H                0.0413      0.3764     -3.2133
N                0.6873     -2.2104      1.2091
O                0.6300     -0.3529      2.5489
Cl               2.7815     -0.3744      0.8742
H                1.0816     -2.6843      1.9924
H                0.9118     -2.6145      0.3273
H                0.8048      0.6004      2.5460
18
P7 HEAT OF FORMATION = -25.45227 KCAL = -106.49222 KJ
H               -1.2463      0.9208      1.5826
C               -0.9514      0.8102      0.5273
C               -0.2400      0.4964     -2.1542
C                0.0970     -0.0483      0.1767
C               -1.6350      1.5125     -0.4637
C               -1.2803      1.3571     -1.8039
C                0.4494     -0.2076     -1.1678
C                0.8111     -0.8179      1.2461
H               -2.4572      2.1883     -0.1855
H               -1.8207      1.9138     -2.5841
H                1.2862     -0.8687     -1.4439
H                0.0427      0.3736     -3.2104
N                0.6980     -2.2126      1.2101
O                0.6301     -0.3560      2.5507
Cl               2.7985     -0.3591      0.8634
H                1.1020     -2.6856      1.9887
H                0.9071     -2.6140      0.3237
H                0.8086      0.5971      2.5441
18
P8 HEAT OF FORMATION = -24.10250 KCAL = -100.84478 KJ
H               -1.2535      0.9236      1.5829
C               -0.9582      0.8106      0.5280
C               -0.2410      0.4945     -2.1519
C                0.0873     -0.0529      0.1795
C               -1.6368      1.5152     -0.4646
C               -1.2794      1.3583     -1.8040
C                0.4436     -0.2123     -1.1641
C                0.7935     -0.8233      1.2496
H               -2.4571      2.1943     -0.1884
H               -1.8159      1.9171     -2.5855
H                1.2811     -0.8738     -1.4374
H                0.0448      0.3721     -3.2073
N                0.7084     -2.2144      1.2115
O                0.6308     -0.3583      2.5521
Cl               2.8153     -0.3442      0.8515
H                1.1209     -2.6864      1.9860
H                0.9020     -2.6143      0.3210
H                0.8144      0.5942      2.5409
18
P9 HEAT OF FORMATION = -22.63501 KCAL = -94.70481 KJ
H               -1.2623      0.9240      1.5830
C               -0.9658      0.8099      0.5286
C               -0.2414      0.4933     -2.1495
C                0.0774     -0.0575      0.1821
C               -1.6394      1.5170     -0.4654
C               -1.2784      1.3598     -1.8039
C                0.4383     -0.2164     -1.1604
C                0.7763     -0.8286      1.2530
H               -2.4579      2.1990     -0.1911
H               -1.8108      1.9211     -2.5865
H                1.2772     -0.8775     -1.4310
H                0.0479      0.3719     -3.2041
N                0.7178     -2.2159      1.2136
O                0.6331     -0.3594      2.5529
Cl               2.8325     -0.3310      0.8378
H                1.1383     -2.6864      1.9846
H                0.8951     -2.6157      0.3200
H                0.8221      0.5925      2.5361
18
P10 HEAT OF FORMATION = -21.07811 KCAL = -88.19075 KJ
H               -1.2714      0.9237      1.5833
C               -0.9735      0.8087      0.5293
C               -0.2411      0.4929     -2.1470
C                0.0681     -0.0619      0.1847
C               -1.6425      1.5179     -0.4661
C               -1.2777      1.3608     -1.8038
C                0.4341     -0.2194     -1.1566
C                0.7596     -0.8338      1.2564
H               -2.4599      2.2020     -0.1939
H               -1.8064      1.9241     -2.5875
H                1.2750     -0.8794     -1.4244
H                0.0521      0.3729     -3.2007
N                0.7260     -2.2168      1.2162
O                0.6369     -0.3598      2.5535
Cl               2.8504     -0.3198      0.8228
H                1.1548     -2.6860      1.9833
H                0.8845     -2.6178      0.3196
H                0.8312      0.5915      2.5308
18
P11 HEAT OF FORMATION = -19.45620 KCAL = -81.40467 KJ
H               -1.2810      0.9232      1.5834
C               -0.9816      0.8074      0.5299
C               -0.2408      0.4924     -2.1444
C                0.0585     -0.0663      0.1874
C               -1.6457      1.5188     -0.4669
C               -1.2769      1.3618     -1.8036
C                0.4298     -0.2225     -1.1527
C                0.7431     -0.8389      1.2598
H               -2.4621      2.2051     -0.1968
H               -1.8017      1.9273     -2.5884
H                1.2729     -0.8812     -1.4174
H                0.0565      0.3738     -3.1971
N                0.7342     -2.2174      1.2185
O                0.6409     -0.3602      2.5540
Cl               2.8683     -0.3082      0.8077
H                1.1713     -2.6851      1.9816
H                0.8733     -2.6204      0.3198
H                0.8410      0.5903      2.5251
18
P12 HEAT OF FORMATION = -17.79021 KCAL = -74.43417 KJ
H               -1.2919      0.9205      1.5834
C               -0.9904      0.8049      0.5306
C               -0.2398      0.4930     -2.1417
C                0.0491     -0.0707      0.1900
C               -1.6497      1.5187     -0.4675
C               -1.2761      1.3629     -1.8033
C                0.4263     -0.2246     -1.1488
C                0.7272     -0.8440      1.2631
H               -2.4655      2.2064     -0.1995
H               -1.7971      1.9306     -2.5890
H                1.2723     -0.8812     -1.4105
H                0.0622      0.3765     -3.1934
N                0.7411     -2.2176      1.2214
O                0.6467     -0.3592      2.5538
Cl               2.8869     -0.2989      0.7904
H                1.1851     -2.6835      1.9814
H                0.8605     -2.6242      0.3218
H                0.8530      0.5903      2.5178
18
P13 HEAT OF FORMATION = -16.09910 KCAL = -67.35859 KJ
H               -1.3032      0.9172      1.5834
C               -0.9995      0.8022      0.5311
C               -0.2385      0.4939     -2.1389
C                0.0397     -0.0750      0.1926
C               -1.6541      1.5181     -0.4682
C               -1.2755      1.3640     -1.8029
C                0.4233     -0.2262     -1.1448
C                0.7116     -0.8487      1.2663
H               -2.4699      2.2068     -0.2023
H               -1.7927      1.9338     -2.5897
H                1.2723     -0.8804     -1.4035
H                0.0682      0.3799     -3.1896
N                0.7472     -2.2176      1.2245
O                0.6525     -0.3577      2.5533
Cl               2.9061     -0.2909      0.7732
H                1.1983     -2.6817      1.9814
H                0.8470     -2.6282      0.3243
H                0.8672      0.5904      2.5099
18
P14 HEAT OF FORMATION = -14.39949 KCAL = -60.24744 KJ
H               -1.3180      0.9095      1.5829
C               -1.0105      0.7970      0.5314
C               -0.2350      0.4978     -2.1357
C                0.0310     -0.0785      0.1950
C               -1.6613      1.5146     -0.4690
C               -1.2753      1.3648     -1.8023
C                0.4228     -0.2247     -1.1406
C                0.6971     -0.8525      1.2696
H               -2.4792      2.2016     -0.2053
H               -1.7894      1.9364     -2.5899
H                1.2766     -0.8746     -1.3958
H                0.0782      0.3886     -3.1850
N                0.7490     -2.2167      1.2299
O                0.6635     -0.3521      2.5515
Cl               2.9279     -0.2921      0.7512
H                1.2065     -2.6792      1.9841
H                0.8272     -2.6335      0.3305
H                0.8887      0.5936      2.4974
18
P15 HEAT OF FORMATION = -12.70551 KCAL = -53.15983 KJ
H               -1.3327      0.9022      1.5825
C               -1.0217      0.7921      0.5318
C               -0.2317      0.5017     -2.1324
C                0.0223     -0.0818      0.1975
C               -1.6686      1.5110     -0.4699
C               -1.2755      1.3654     -1.8018
C                0.4224     -0.2229     -1.1362
C                0.6827     -0.8561      1.2729
H               -2.4888      2.1962     -0.2087
H               -1.7865      1.9386     -2.5903
H                1.2813     -0.8680     -1.3876
H                0.0882      0.3972     -3.1802
N                0.7502     -2.2158      1.2348
O                0.6741     -0.3467      2.5496
Cl               2.9497     -0.2939      0.7290
H                1.2124     -2.6766      1.9873
H                0.8098     -2.6384      0.3367
H                0.9123      0.5957      2.4850
18
P16 HEAT OF FORMATION = -11.02728 KCAL = -46.13809 KJ
H               -1.3486      0.8926      1.5817
C               -1.0335      0.7861      0.5320
C               -0.2277      0.5068     -2.1290
C                0.0139     -0.0849      0.1997
C               -1.6768      1.5065     -0.4707
C               -1.2758      1.3662     -1.8010
C                0.4230     -0.2200     -1.1319
C                0.6693     -0.8592      1.2762
H               -2.4999      2.1892     -0.2117
H               -1.7841      1.9408     -2.5904
H                1.2873     -0.8598     -1.3796
H                0.0993      0.4081     -3.1752
N                0.7500     -2.2146      1.2409
O                0.6864     -0.3397      2.5467
Cl               2.9732     -0.3000      0.7054
H                1.2176     -2.6735      1.9918
H                0.7900     -2.6441      0.3447
H                0.9363      0.5995      2.4705
18
P17 HEAT OF FORMATION = -9.38392 KCAL = -39.26228 KJ
H               -1.3685      0.8802      1.5804
C               -1.0475      0.7784      0.5320
C               -0.2218      0.5142     -2.1247
C                0.0056     -0.0871      0.2025
C               -1.6874      1.4997     -0.4720
C               -1.2764      1.3667     -1.8002
C                0.4256     -0.2142     -1.1264
C                0.6569     -0.8610      1.2799
H               -2.5152      2.1777     -0.2161
H               -1.7820      1.9426     -2.5905
H                1.2974     -0.8464     -1.3695
H                0.1136      0.4222     -3.1689
N                0.7467     -2.2125      1.2486
O                0.7035     -0.3303      2.5429
Cl               2.9984     -0.3154      0.6764
H                1.2206     -2.6695      1.9968
H                0.7643     -2.6502      0.3556
H                0.9661      0.6048      2.4531
18
P18 HEAT OF FORMATION = -7.77641 KCAL = -32.53647 KJ
H               -1.3903      0.8665      1.5787
C               -1.0625      0.7702      0.5319
C               -0.2148      0.5228     -2.1199
C               -0.0022     -0.0879      0.2058
C               -1.6995      1.4914     -0.4738
C               -1.2775      1.3667     -1.7995
C                0.4298     -0.2061     -1.1201
C                0.6456     -0.8617      1.2838
H               -2.5332      2.1634     -0.2213
H               -1.7808      1.9430     -2.5910
H                1.3103     -0.8294     -1.3576
H                0.1296      0.4381     -3.1618
N                0.7409     -2.2098      1.2570
O                0.7243     -0.3200      2.5387
Cl               3.0255     -0.3372      0.6454
H                1.2240     -2.6648      2.0007
H                0.7325     -2.6562      0.3682
H                0.9983      0.6110      2.4348
18
P19 HEAT OF FORMATION = -6.21592 KCAL = -26.00738 KJ
H               -1.4182      0.8438      1.5757
C               -1.0809      0.7574      0.5310
C               -0.2046      0.5369     -2.1142
C               -0.0089     -0.0879      0.2087
C               -1.7156      1.4785     -0.4758
C               -1.2793      1.3669     -1.7984
C                0.4382     -0.1925     -1.1132
C                0.6365     -0.8603      1.2878
H               -2.5586      2.1404     -0.2272
H               -1.7812      1.9435     -2.5908
H                1.3303     -0.8030     -1.3443
H                0.1515      0.4636     -3.1531
N                0.7298     -2.2057      1.2704
O                0.7533     -0.3034      2.5312
Cl               3.0557     -0.3773      0.6051
H                1.2205     -2.6589      2.0106
H                0.6913     -2.6641      0.3884
H                1.0401      0.6221      2.4082
18
P20 HEAT OF FORMATION = -4.71374 KCAL = -19.72225 KJ
H               -1.4571      0.8082      1.5699
C               -1.1055      0.7378      0.5288
C               -0.1884      0.5610     -2.1062
C               -0.0135     -0.0840      0.2120
C               -1.7401      1.4563     -0.4796
C               -1.2834      1.3663     -1.7973
C                0.4550     -0.1666     -1.1038
C                0.6306     -0.8545      1.2926
H               -2.5991      2.0993     -0.2366
H               -1.7858      1.9409     -2.5906
H                1.3656     -0.7558     -1.3249
H                0.1841      0.5054     -3.1405
N                0.7069     -2.1984      1.2921
O                0.7994     -0.2773      2.5189
Cl               3.0894     -0.4555      0.5474
H                1.2043     -2.6505      2.0292
H                0.6336     -2.6713      0.4195
H                1.1040      0.6388      2.3689
