13
P1 HEAT OF FORMATION = -178605.16966 KCAL = -747283.50613 KJ
O                1.6218      0.0012     -0.3006
C                0.2326      0.0004     -0.2982
C               -0.3423      1.2718      0.3248
C               -0.3396     -1.2704      0.3285
C               -0.0825     -0.0021     -1.7608
H               -0.1132     -1.2678      1.3903
H                0.1125     -2.1449     -0.1208
H               -1.4147     -1.3211      0.2020
H                0.1068      2.1463     -0.1277
H               -0.1154      1.2736      1.3865
H               -1.4176      1.3188      0.1988
N               -0.3388     -0.0040     -2.8663
H                2.0904     -0.0019      1.6437
13
P2 HEAT OF FORMATION = -178610.97958 KCAL = -747307.81482 KJ
O                1.6238      0.0018     -0.2951
C                0.2334      0.0004     -0.2948
C               -0.3414      1.2715      0.3286
C               -0.3387     -1.2703      0.3322
C               -0.0825     -0.0022     -1.7570
H               -0.1139     -1.2674      1.3943
H                0.1142     -2.1449     -0.1162
H               -1.4136     -1.3219      0.2050
H                0.1089      2.1459     -0.1230
H               -0.1159      1.2728      1.3905
H               -1.4165      1.3199      0.2019
N               -0.3396     -0.0040     -2.8623
H                2.0819     -0.0016      1.5958
13
P3 HEAT OF FORMATION = -178617.06302 KCAL = -747333.26791 KJ
O                1.6262      0.0016     -0.2894
C                0.2343      0.0002     -0.2914
C               -0.3405      1.2711      0.3324
C               -0.3381     -1.2701      0.3359
C               -0.0817     -0.0022     -1.7532
H               -0.1150     -1.2674      1.3984
H                0.1153     -2.1449     -0.1118
H               -1.4128     -1.3221      0.2078
H                0.1104      2.1455     -0.1185
H               -0.1165      1.2724      1.3947
H               -1.4154      1.3200      0.2049
N               -0.3409     -0.0039     -2.8579
H                2.0746     -0.0002      1.5480
13
P4 HEAT OF FORMATION = -178623.42785 KCAL = -747359.89836 KJ
O                1.6288      0.0010     -0.2832
C                0.2354     -0.0000     -0.2880
C               -0.3395      1.2707      0.3361
C               -0.3374     -1.2701      0.3394
C               -0.0809     -0.0022     -1.7493
H               -0.1154     -1.2679      1.4023
H                0.1158     -2.1450     -0.1081
H               -1.4121     -1.3219      0.2109
H                0.1116      2.1453     -0.1144
H               -0.1166      1.2722      1.3987
H               -1.4143      1.3199      0.2083
N               -0.3421     -0.0037     -2.8535
H                2.0668      0.0016      1.5007
13
P5 HEAT OF FORMATION = -178630.08022 KCAL = -747387.73184 KJ
O                1.6313      0.0005     -0.2770
C                0.2365     -0.0003     -0.2847
C               -0.3384      1.2703      0.3398
C               -0.3367     -1.2700      0.3429
C               -0.0802     -0.0022     -1.7454
H               -0.1155     -1.2686      1.4060
H                0.1162     -2.1451     -0.1047
H               -1.4115     -1.3216      0.2145
H                0.1129      2.1450     -0.1104
H               -0.1166      1.2721      1.4027
H               -1.4132      1.3199      0.2117
N               -0.3433     -0.0036     -2.8491
H                2.0585      0.0037      1.4536
13
P6 HEAT OF FORMATION = -178637.02459 KCAL = -747416.78709 KJ
O                1.6338      0.0006     -0.2705
C                0.2377     -0.0003     -0.2815
C               -0.3374      1.2701      0.3433
C               -0.3358     -1.2698      0.3465
C               -0.0794     -0.0022     -1.7416
H               -0.1148     -1.2690      1.4096
H                0.1167     -2.1450     -0.1013
H               -1.4106     -1.3213      0.2184
H                0.1138      2.1448     -0.1067
H               -0.1164      1.2723      1.4065
H               -1.4123      1.3198      0.2152
N               -0.3447     -0.0037     -2.8448
H                2.0493      0.0037      1.4070
13
P7 HEAT OF FORMATION = -178644.26105 KCAL = -747447.06441 KJ
O                1.6362      0.0006     -0.2640
C                0.2388     -0.0003     -0.2783
C               -0.3365      1.2699      0.3469
C               -0.3348     -1.2696      0.3500
C               -0.0786     -0.0023     -1.7379
H               -0.1142     -1.2695      1.4134
H                0.1172     -2.1450     -0.0979
H               -1.4097     -1.3210      0.2223
H                0.1146      2.1448     -0.1031
H               -0.1161      1.2726      1.4102
H               -1.4114      1.3196      0.2188
N               -0.3459     -0.0037     -2.8406
H                2.0405      0.0038      1.3602
13
P8 HEAT OF FORMATION = -178651.79266 KCAL = -747478.57666 KJ
O                1.6385      0.0010     -0.2572
C                0.2399     -0.0001     -0.2752
C               -0.3356      1.2699      0.3503
C               -0.3337     -1.2693      0.3535
C               -0.0778     -0.0022     -1.7343
H               -0.1136     -1.2695      1.4171
H                0.1183     -2.1449     -0.0944
H               -1.4086     -1.3209      0.2259
H                0.1146      2.1450     -0.1002
H               -0.1149      1.2734      1.4137
H               -1.4106      1.3192      0.2231
N               -0.3473     -0.0038     -2.8364
H                2.0309      0.0020      1.3140
13
P9 HEAT OF FORMATION = -178659.61079 KCAL = -747511.28766 KJ
O                1.6407      0.0008     -0.2503
C                0.2411     -0.0002     -0.2721
C               -0.3347      1.2696      0.3538
C               -0.3329     -1.2692      0.3570
C               -0.0768     -0.0022     -1.7306
H               -0.1121     -1.2704      1.4204
H                0.1179     -2.1449     -0.0916
H               -1.4079     -1.3200      0.2307
H                0.1152      2.1448     -0.0968
H               -0.1144      1.2736      1.4173
H               -1.4097      1.3188      0.2269
N               -0.3482     -0.0039     -2.8323
H                2.0218      0.0031      1.2677
13
P10 HEAT OF FORMATION = -178667.70213 KCAL = -747545.14183 KJ
O                1.6428      0.0006     -0.2432
C                0.2422     -0.0003     -0.2691
C               -0.3337      1.2694      0.3573
C               -0.3320     -1.2691      0.3605
C               -0.0758     -0.0023     -1.7271
H               -0.1109     -1.2711      1.4237
H                0.1178     -2.1451     -0.0888
H               -1.4071     -1.3195      0.2351
H                0.1157      2.1447     -0.0938
H               -0.1133      1.2740      1.4209
H               -1.4089      1.3183      0.2311
N               -0.3492     -0.0039     -2.8282
H                2.0124      0.0042      1.2216
13
P11 HEAT OF FORMATION = -178676.04026 KCAL = -747580.02853 KJ
O                1.6447      0.0007     -0.2360
C                0.2433     -0.0001     -0.2661
C               -0.3328      1.2694      0.3607
C               -0.3312     -1.2689      0.3639
C               -0.0748     -0.0022     -1.7236
H               -0.1104     -1.2711      1.4274
H                0.1186     -2.1449     -0.0853
H               -1.4063     -1.3193      0.2385
H                0.1150      2.1449     -0.0913
H               -0.1111      1.2750      1.4241
H               -1.4081      1.3175      0.2363
N               -0.3501     -0.0037     -2.8242
H                2.0033      0.0026      1.1755
13
P12 HEAT OF FORMATION = -178684.59978 KCAL = -747615.84153 KJ
O                1.6464      0.0005     -0.2287
C                0.2443     -0.0003     -0.2630
C               -0.3319      1.2692      0.3642
C               -0.3304     -1.2689      0.3674
C               -0.0738     -0.0022     -1.7200
H               -0.1089     -1.2719      1.4308
H                0.1183     -2.1451     -0.0826
H               -1.4057     -1.3187      0.2432
H                0.1154      2.1449     -0.0882
H               -0.1101      1.2753      1.4276
H               -1.4073      1.3171      0.2403
N               -0.3508     -0.0036     -2.8202
H                1.9946      0.0037      1.1293
13
P13 HEAT OF FORMATION = -178693.30406 KCAL = -747652.26021 KJ
O                1.6480      0.0005     -0.2212
C                0.2453     -0.0003     -0.2601
C               -0.3311      1.2691      0.3677
C               -0.3296     -1.2688      0.3708
C               -0.0727     -0.0022     -1.7166
H               -0.1071     -1.2727      1.4340
H                0.1179     -2.1451     -0.0801
H               -1.4050     -1.3179      0.2480
H                0.1153      2.1450     -0.0854
H               -0.1087      1.2759      1.4309
H               -1.4066      1.3165      0.2447
N               -0.3514     -0.0036     -2.8162
H                1.9856      0.0036      1.0834
13
P14 HEAT OF FORMATION = -178702.06644 KCAL = -747688.92200 KJ
O                1.6495      0.0014     -0.2133
C                0.2465      0.0001     -0.2571
C               -0.3306      1.2693      0.3709
C               -0.3284     -1.2684      0.3742
C               -0.0713     -0.0020     -1.7132
H               -0.1049     -1.2732      1.4372
H                0.1178     -2.1450     -0.0775
H               -1.4041     -1.3168      0.2528
H                0.1136      2.1455     -0.0835
H               -0.1063      1.2776      1.4338
H               -1.4064      1.3152      0.2501
N               -0.3516     -0.0038     -2.8124
H                1.9763      0.0000      1.0379
13
P15 HEAT OF FORMATION = -178710.73779 KCAL = -747725.20290 KJ
O                1.6508      0.0009     -0.2057
C                0.2475     -0.0001     -0.2542
C               -0.3296      1.2690      0.3745
C               -0.3278     -1.2685      0.3776
C               -0.0701     -0.0022     -1.7097
H               -0.1029     -1.2742      1.4404
H                0.1168     -2.1453     -0.0752
H               -1.4037     -1.3158      0.2577
H                0.1137      2.1454     -0.0807
H               -0.1046      1.2779      1.4372
H               -1.4055      1.3145      0.2546
N               -0.3519     -0.0037     -2.8086
H                1.9673      0.0021      0.9920
13
P16 HEAT OF FORMATION = -178719.11261 KCAL = -747760.24313 KJ
O                1.6518      0.0009     -0.1979
C                0.2485     -0.0001     -0.2512
C               -0.3288      1.2690      0.3779
C               -0.3271     -1.2684      0.3811
C               -0.0688     -0.0022     -1.7063
H               -0.1008     -1.2751      1.4436
H                0.1161     -2.1455     -0.0728
H               -1.4031     -1.3148      0.2627
H                0.1132      2.1455     -0.0782
H               -0.1027      1.2786      1.4404
H               -1.4049      1.3136      0.2593
N               -0.3519     -0.0038     -2.8048
H                1.9585      0.0022      0.9462
13
P17 HEAT OF FORMATION = -178726.89718 KCAL = -747792.81372 KJ
O                1.6527      0.0009     -0.1901
C                0.2495     -0.0001     -0.2482
C               -0.3280      1.2690      0.3814
C               -0.3263     -1.2684      0.3845
C               -0.0676     -0.0022     -1.7029
H               -0.0987     -1.2758      1.4467
H                0.1156     -2.1457     -0.0704
H               -1.4024     -1.3139      0.2675
H                0.1128      2.1457     -0.0756
H               -0.1007      1.2792      1.4436
H               -1.4042      1.3128      0.2640
N               -0.3521     -0.0038     -2.8010
H                1.9495      0.0023      0.9003
13
P18 HEAT OF FORMATION = -178733.67835 KCAL = -747821.18611 KJ
O                1.6534      0.0009     -0.1823
C                0.2506     -0.0001     -0.2451
C               -0.3272      1.2689      0.3848
C               -0.3255     -1.2684      0.3880
C               -0.0663     -0.0022     -1.6995
H               -0.0964     -1.2767      1.4499
H                0.1148     -2.1459     -0.0680
H               -1.4018     -1.3128      0.2725
H                0.1120      2.1459     -0.0732
H               -0.0984      1.2801      1.4467
H               -1.4036      1.3117      0.2689
N               -0.3519     -0.0038     -2.7972
H                1.9402      0.0024      0.8545
13
P19 HEAT OF FORMATION = -178738.87749 KCAL = -747842.93930 KJ
O                1.6540      0.0009     -0.1745
C                0.2516     -0.0001     -0.2421
C               -0.3263      1.2690      0.3883
C               -0.3246     -1.2684      0.3915
C               -0.0651     -0.0022     -1.6961
H               -0.0942     -1.2774      1.4530
H                0.1142     -2.1462     -0.0655
H               -1.4011     -1.3117      0.2773
H                0.1113      2.1461     -0.0708
H               -0.0960      1.2809      1.4498
H               -1.4029      1.3106      0.2740
N               -0.3516     -0.0038     -2.7936
H                1.9306      0.0024      0.8087
13
P20 HEAT OF FORMATION = -178741.68382 KCAL = -747854.68100 KJ
O                1.6543      0.0009     -0.1669
C                0.2527     -0.0001     -0.2390
C               -0.3254      1.2690      0.3918
C               -0.3237     -1.2684      0.3950
C               -0.0638     -0.0022     -1.6926
H               -0.0919     -1.2781      1.4562
H                0.1137     -2.1464     -0.0629
H               -1.4003     -1.3107      0.2820
H                0.1108      2.1464     -0.0682
H               -0.0936      1.2816      1.4530
H               -1.4021      1.3095      0.2788
N               -0.3513     -0.0038     -2.7899
H                1.9207      0.0023      0.7627
