13
P1 HEAT OF FORMATION = -200980.49523 KCAL = -840901.80273 KJ
C                1.4579     -0.2819     -0.2516
C                1.1611      1.1946     -0.0276
H                1.9710      1.7788     -0.4430
H                1.0777      1.4081      1.0335
H                0.2204      1.4577     -0.4973
O                2.5128     -0.6462     -0.7293
C                0.3743     -1.2338      0.1140
C               -0.7409     -0.8784      0.7178
H                0.5362     -2.2380     -0.2276
H               -0.9025      0.0957      1.1130
H               -1.5097     -1.5849      0.9419
C               -2.6614      0.2127     -0.5563
N               -3.4969      0.7156     -1.1874
13
P2 HEAT OF FORMATION = -200980.15255 KCAL = -840900.36895 KJ
C                1.4461     -0.2794     -0.2632
C                1.1596      1.1981     -0.0275
H                1.9728      1.7797     -0.4398
H                1.0787      1.4048      1.0350
H                0.2204      1.4711     -0.4948
O                2.4981     -0.6428     -0.7553
C                0.3670     -1.2245      0.1072
C               -0.7538     -0.8636      0.7196
H                0.5180     -2.2291     -0.2373
H               -0.8991      0.1051      1.1350
H               -1.5143     -1.5740      0.9574
C               -2.6305      0.1738     -0.5527
N               -3.4629      0.6808     -1.1837
13
P3 HEAT OF FORMATION = -200979.66732 KCAL = -840898.33875 KJ
C                1.4332     -0.2768     -0.2745
C                1.1575      1.2020     -0.0278
H                1.9734      1.7796     -0.4409
H                1.0834      1.4032      1.0363
H                0.2189      1.4855     -0.4898
O                2.4843     -0.6391     -0.7765
C                0.3580     -1.2154      0.0985
C               -0.7680     -0.8497      0.7205
H                0.4989     -2.2201     -0.2495
H               -0.8956      0.1122      1.1575
H               -1.5170     -1.5660      0.9762
C               -2.5995      0.1396     -0.5464
N               -3.4276      0.6449     -1.1835
13
P4 HEAT OF FORMATION = -200979.08279 KCAL = -840895.89307 KJ
C                1.4199     -0.2746     -0.2866
C                1.1542      1.2054     -0.0284
H                1.9728      1.7797     -0.4405
H                1.0848      1.4005      1.0374
H                0.2167      1.4992     -0.4863
O                2.4691     -0.6348     -0.8012
C                0.3496     -1.2070      0.0908
C               -0.7822     -0.8363      0.7211
H                0.4810     -2.2121     -0.2593
H               -0.8924      0.1184      1.1795
H               -1.5178     -1.5594      0.9967
C               -2.5666      0.1116     -0.5371
N               -3.3892      0.6094     -1.1861
13
P5 HEAT OF FORMATION = -200978.45543 KCAL = -840893.26820 KJ
C                1.4079     -0.2728     -0.2971
C                1.1501      1.2082     -0.0298
H                1.9709      1.7796     -0.4418
H                1.0847      1.3996      1.0370
H                0.2137      1.5097     -0.4846
O                2.4566     -0.6302     -0.8216
C                0.3422     -1.1991      0.0833
C               -0.7965     -0.8232      0.7199
H                0.4641     -2.2044     -0.2689
H               -0.8890      0.1225      1.2011
H               -1.5184     -1.5527      1.0139
C               -2.5343      0.0859     -0.5263
N               -3.3521      0.5767     -1.1852
13
P6 HEAT OF FORMATION = -200977.85400 KCAL = -840890.75182 KJ
C                1.3954     -0.2711     -0.3083
C                1.1466      1.2114     -0.0313
H                1.9709      1.7790     -0.4415
H                1.0841      1.3975      1.0366
H                0.2121      1.5230     -0.4835
O                2.4435     -0.6254     -0.8430
C                0.3345     -1.1912      0.0758
C               -0.8118     -0.8100      0.7173
H                0.4482     -2.1975     -0.2762
H               -0.8860      0.1267      1.2208
H               -1.5173     -1.5471      1.0329
C               -2.5038      0.0607     -0.5151
N               -3.3164      0.5440     -1.1844
13
P7 HEAT OF FORMATION = -200977.36829 KCAL = -840888.71960 KJ
C                1.3864     -0.2688     -0.3213
C                1.1593      1.2156     -0.0252
H                1.9950      1.7738     -0.4253
H                1.0955      1.3895      1.0446
H                0.2331      1.5504     -0.4781
O                2.4320     -0.6247     -0.8663
C                0.3233     -1.1766      0.0619
C               -0.8303     -0.7850      0.7060
H                0.4250     -2.1847     -0.2885
H               -0.8844      0.1444      1.2275
H               -1.5185     -1.5277      1.0479
C               -2.4877      0.0317     -0.5075
N               -3.3288      0.4621     -1.1759
13
P8 HEAT OF FORMATION = -200977.06309 KCAL = -840887.44264 KJ
C                1.3748     -0.2678     -0.3323
C                1.1569      1.2184     -0.0269
H                1.9992      1.7716     -0.4201
H                1.0893      1.3878      1.0435
H                0.2368      1.5651     -0.4832
O                2.4206     -0.6203     -0.8858
C                0.3151     -1.1684      0.0528
C               -0.8465     -0.7714      0.7008
H                0.4100     -2.1780     -0.2948
H               -0.8823      0.1484      1.2427
H               -1.5146     -1.5220      1.0672
C               -2.4602      0.0083     -0.4939
N               -3.2991      0.4282     -1.1700
13
P9 HEAT OF FORMATION = -200977.03270 KCAL = -840887.31551 KJ
C                1.3631     -0.2667     -0.3432
C                1.1540      1.2212     -0.0286
H                2.0016      1.7690     -0.4178
H                1.0861      1.3859      1.0425
H                0.2381      1.5794     -0.4848
O                2.4098     -0.6156     -0.9038
C                0.3069     -1.1604      0.0437
C               -0.8630     -0.7580      0.6953
H                0.3946     -2.1719     -0.3008
H               -0.8799      0.1523      1.2564
H               -1.5104     -1.5158      1.0860
C               -2.4324     -0.0132     -0.4800
N               -3.2686      0.3939     -1.1650
13
P10 HEAT OF FORMATION = -200977.35700 KCAL = -840888.67240 KJ
C                1.3516     -0.2661     -0.3539
C                1.1509      1.2237     -0.0301
H                2.0035      1.7666     -0.4156
H                1.0828      1.3841      1.0418
H                0.2394      1.5931     -0.4866
O                2.3993     -0.6111     -0.9215
C                0.2984     -1.1525      0.0341
C               -0.8796     -0.7445      0.6895
H                0.3794     -2.1659     -0.3064
H               -0.8776      0.1561      1.2690
H               -1.5053     -1.5093      1.1048
C               -2.4045     -0.0339     -0.4656
N               -3.2381      0.3597     -1.1596
13
P11 HEAT OF FORMATION = -200978.10228 KCAL = -840891.79062 KJ
C                1.3405     -0.2656     -0.3640
C                1.1483      1.2262     -0.0314
H                2.0050      1.7642     -0.4146
H                1.0816      1.3825      1.0414
H                0.2403      1.6067     -0.4865
O                2.3898     -0.6073     -0.9372
C                0.2892     -1.1442      0.0232
C               -0.8967     -0.7309      0.6829
H                0.3647     -2.1600     -0.3116
H               -0.8757      0.1608      1.2786
H               -1.4996     -1.5023      1.1231
C               -2.3785     -0.0555     -0.4507
N               -3.2091      0.3255     -1.1529
13
P12 HEAT OF FORMATION = -200979.31172 KCAL = -840896.85093 KJ
C                1.3300     -0.2654     -0.3733
C                1.1442      1.2284     -0.0336
H                2.0049      1.7619     -0.4146
H                1.0781      1.3819      1.0397
H                0.2398      1.6183     -0.4883
O                2.3819     -0.6036     -0.9500
C                0.2804     -1.1366      0.0117
C               -0.9134     -0.7186      0.6761
H                0.3515     -2.1551     -0.3160
H               -0.8738      0.1642      1.2868
H               -1.4933     -1.4962      1.1397
C               -2.3508     -0.0755     -0.4356
N               -3.1793      0.2963     -1.1427
13
P13 HEAT OF FORMATION = -200980.99446 KCAL = -840903.89150 KJ
C                1.3192     -0.2653     -0.3826
C                1.1398      1.2306     -0.0358
H                2.0037      1.7597     -0.4155
H                1.0754      1.3814      1.0383
H                0.2383      1.6295     -0.4889
O                2.3736     -0.6003     -0.9630
C                0.2711     -1.1290     -0.0001
C               -0.9302     -0.7067      0.6701
H                0.3386     -2.1505     -0.3196
H               -0.8722      0.1677      1.2936
H               -1.4867     -1.4898      1.1560
C               -2.3230     -0.0953     -0.4194
N               -3.1476      0.2679     -1.1333
13
P14 HEAT OF FORMATION = -200983.11633 KCAL = -840912.76939 KJ
C                1.3095     -0.2653     -0.3906
C                1.1355      1.2326     -0.0384
H                2.0026      1.7575     -0.4167
H                1.0720      1.3816      1.0362
H                0.2369      1.6395     -0.4909
O                2.3675     -0.5977     -0.9723
C                0.2621     -1.1214     -0.0128
C               -0.9468     -0.6950      0.6628
H                0.3266     -2.1459     -0.3235
H               -0.8702      0.1713      1.2989
H               -1.4803     -1.4835      1.1697
C               -2.2955     -0.1140     -0.4029
N               -3.1199      0.2402     -1.1194
13
P15 HEAT OF FORMATION = -200985.58933 KCAL = -840923.11641 KJ
C                1.2997     -0.2652     -0.3982
C                1.1312      1.2345     -0.0408
H                2.0004      1.7555     -0.4198
H                1.0710      1.3818      1.0344
H                0.2344      1.6487     -0.4905
O                2.3613     -0.5957     -0.9809
C                0.2527     -1.1137     -0.0259
C               -0.9635     -0.6835      0.6560
H                0.3149     -2.1411     -0.3275
H               -0.8689      0.1755      1.3021
H               -1.4738     -1.4766      1.1825
C               -2.2680     -0.1330     -0.3859
N               -3.0914      0.2127     -1.1056
13
P16 HEAT OF FORMATION = -200988.26637 KCAL = -840934.31713 KJ
C                1.2904     -0.2651     -0.4049
C                1.1267      1.2363     -0.0433
H                1.9965      1.7541     -0.4252
H                1.0721      1.3824      1.0326
H                0.2301      1.6562     -0.4884
O                2.3558     -0.5943     -0.9876
C                0.2439     -1.1063     -0.0388
C               -0.9803     -0.6725      0.6485
H                0.3046     -2.1367     -0.3308
H               -0.8681      0.1800      1.3029
H               -1.4674     -1.4700      1.1938
C               -2.2405     -0.1514     -0.3687
N               -3.0638      0.1874     -1.0900
13
P17 HEAT OF FORMATION = -200990.93056 KCAL = -840945.46411 KJ
C                1.2813     -0.2649     -0.4109
C                1.1221      1.2379     -0.0462
H                1.9917      1.7529     -0.4322
H                1.0743      1.3834      1.0303
H                0.2249      1.6629     -0.4858
O                2.3507     -0.5934     -0.9931
C                0.2356     -1.0992     -0.0510
C               -0.9968     -0.6617      0.6411
H                0.2949     -2.1323     -0.3336
H               -0.8678      0.1838      1.3036
H               -1.4620     -1.4636      1.2023
C               -2.2123     -0.1687     -0.3512
N               -3.0366      0.1629     -1.0731
13
P18 HEAT OF FORMATION = -200993.28766 KCAL = -840955.32623 KJ
C                1.2727     -0.2649     -0.4157
C                1.1167      1.2394     -0.0496
H                1.9844      1.7525     -0.4420
H                1.0777      1.3850      1.0275
H                0.2172      1.6669     -0.4821
O                2.3469     -0.5933     -0.9956
C                0.2280     -1.0927     -0.0630
C               -1.0131     -0.6519      0.6331
H                0.2863     -2.1282     -0.3371
H               -0.8672      0.1873      1.3024
H               -1.4564     -1.4575      1.2094
C               -2.1844     -0.1845     -0.3322
N               -3.0088      0.1419     -1.0552
13
P19 HEAT OF FORMATION = -200994.94204 KCAL = -840962.24812 KJ
C                1.2645     -0.2649     -0.4198
C                1.1104      1.2406     -0.0538
H                1.9756      1.7525     -0.4534
H                1.0805      1.3873      1.0237
H                0.2081      1.6695     -0.4792
O                2.3435     -0.5931     -0.9973
C                0.2218     -1.0872     -0.0733
C               -1.0290     -0.6429      0.6251
H                0.2791     -2.1249     -0.3393
H               -0.8670      0.1892      1.3019
H               -1.4519     -1.4526      1.2138
C               -2.1552     -0.1984     -0.3130
N               -2.9803      0.1250     -1.0354
13
P20 HEAT OF FORMATION = -200995.37229 KCAL = -840964.04830 KJ
C                1.2571     -0.2649     -0.4228
C                1.1043      1.2418     -0.0580
H                1.9655      1.7531     -0.4668
H                1.0856      1.3899      1.0197
H                0.1979      1.6706     -0.4749
O                2.3416     -0.5936     -0.9961
C                0.2167     -1.0822     -0.0830
C               -1.0449     -0.6343      0.6155
H                0.2729     -2.1218     -0.3420
H               -0.8674      0.1912      1.2986
H               -1.4475     -1.4475      1.2164
C               -2.1273     -0.2120     -0.2932
N               -2.9547      0.1097     -1.0134
