14
P1 HEAT OF FORMATION = -201247.84874 KCAL = -842020.40900 KJ
C               -1.0672     -0.1702     -0.5418
O               -1.9520     -0.1626     -1.4529
C               -0.1368      0.8290     -0.4995
C               -1.0304     -1.2870      0.4756
H               -0.1732      1.5390     -1.3007
H               -0.1436     -1.8996      0.3427
H               -1.9031     -1.9048      0.3291
H               -1.0345     -0.8923      1.4845
C                1.1841      0.7089      0.2318
H                1.6132      1.6911      0.3742
C                2.1137     -0.0986     -0.5643
H                1.0620      0.2502      1.2022
N                2.8293     -0.7308     -1.1854
H               -1.3615      2.1277      1.1046
14
P2 HEAT OF FORMATION = -201254.10975 KCAL = -842046.60509 KJ
C               -1.0700     -0.1735     -0.5413
O               -1.9435     -0.1723     -1.4588
C               -0.1410      0.8378     -0.4886
C               -1.0363     -1.2854      0.4806
H               -0.1726      1.5411     -1.2959
H               -0.1458     -1.8940      0.3587
H               -1.9044     -1.9085      0.3300
H               -1.0508     -0.8851      1.4870
C                1.1830      0.7102      0.2368
H                1.6135      1.6908      0.3848
C                2.1093     -0.0925     -0.5677
H                1.0636      0.2452      1.2046
N                2.8229     -0.7202     -1.1957
H               -1.3279      2.1064      1.0654
14
P3 HEAT OF FORMATION = -201260.56850 KCAL = -842073.62847 KJ
C               -1.0725     -0.1752     -0.5406
O               -1.9354     -0.1800     -1.4638
C               -0.1465      0.8493     -0.4761
C               -1.0386     -1.2846      0.4836
H               -0.1734      1.5462     -1.2893
H               -0.1442     -1.8883      0.3682
H               -1.9020     -1.9132      0.3295
H               -1.0607     -0.8818      1.4888
C                1.1815      0.7134      0.2424
H                1.6168      1.6919      0.3909
C                2.1009     -0.0910     -0.5679
H                1.0648      0.2469      1.2097
N                2.8091     -0.7200     -1.2008
H               -1.3000      2.0862      1.0256
14
P4 HEAT OF FORMATION = -201267.24203 KCAL = -842101.55048 KJ
C               -1.0746     -0.1761     -0.5405
O               -1.9261     -0.1869     -1.4698
C               -0.1523      0.8619     -0.4640
C               -1.0404     -1.2831      0.4864
H               -0.1744      1.5522     -1.2829
H               -0.1422     -1.8824      0.3758
H               -1.9001     -1.9166      0.3298
H               -1.0677     -0.8790      1.4908
C                1.1799      0.7176      0.2473
H                1.6207      1.6937      0.3950
C                2.0919     -0.0907     -0.5675
H                1.0653      0.2509      1.2148
N                2.7943     -0.7230     -1.2035
H               -1.2741      2.0616      0.9883
14
P5 HEAT OF FORMATION = -201274.13564 KCAL = -842130.39333 KJ
C               -1.0770     -0.1771     -0.5403
O               -1.9184     -0.1934     -1.4745
C               -0.1590      0.8747     -0.4516
C               -1.0410     -1.2827      0.4880
H               -0.1757      1.5581     -1.2766
H               -0.1398     -1.8781      0.3791
H               -1.8974     -1.9205      0.3306
H               -1.0712     -0.8782      1.4923
C                1.1775      0.7222      0.2527
H                1.6241      1.6960      0.3986
C                2.0818     -0.0912     -0.5653
H                1.0649      0.2564      1.2210
N                2.7782     -0.7279     -1.2037
H               -1.2469      2.0414      0.9498
14
P6 HEAT OF FORMATION = -201281.25549 KCAL = -842160.18277 KJ
C               -1.0795     -0.1785     -0.5399
O               -1.9109     -0.1999     -1.4787
C               -0.1658      0.8868     -0.4394
C               -1.0425     -1.2825      0.4902
H               -0.1761      1.5619     -1.2715
H               -0.1383     -1.8740      0.3844
H               -1.8955     -1.9246      0.3311
H               -1.0766     -0.8769      1.4940
C                1.1749      0.7261      0.2581
H                1.6264      1.6977      0.4037
C                2.0726     -0.0900     -0.5641
H                1.0645      0.2600      1.2265
N                2.7641     -0.7289     -1.2054
H               -1.2174      2.0227      0.9111
14
P7 HEAT OF FORMATION = -201288.60632 KCAL = -842190.93862 KJ
C               -1.0811     -0.1798     -0.5402
O               -1.9010     -0.2075     -1.4847
C               -0.1725      0.8993     -0.4271
C               -1.0443     -1.2813      0.4926
H               -0.1765      1.5661     -1.2666
H               -0.1376     -1.8694      0.3908
H               -1.8942     -1.9272      0.3323
H               -1.0826     -0.8741      1.4956
C                1.1726      0.7304      0.2630
H                1.6291      1.6998      0.4082
C                2.0634     -0.0888     -0.5631
H                1.0645      0.2637      1.2316
N                2.7495     -0.7304     -1.2077
H               -1.1893      1.9992      0.8755
14
P8 HEAT OF FORMATION = -201296.18163 KCAL = -842222.63371 KJ
C               -1.0826     -0.1811     -0.5401
O               -1.8911     -0.2147     -1.4900
C               -0.1791      0.9117     -0.4146
C               -1.0464     -1.2801      0.4954
H               -0.1761      1.5692     -1.2619
H               -0.1364     -1.8643      0.3988
H               -1.8925     -1.9306      0.3322
H               -1.0906     -0.8711      1.4977
C                1.1703      0.7341      0.2681
H                1.6318      1.7012      0.4135
C                2.0542     -0.0871     -0.5630
H                1.0647      0.2663      1.2365
N                2.7350     -0.7304     -1.2115
H               -1.1613      1.9770      0.8389
14
P9 HEAT OF FORMATION = -201303.97711 KCAL = -842255.24998 KJ
C               -1.0838     -0.1825     -0.5402
O               -1.8814     -0.2215     -1.4950
C               -0.1859      0.9240     -0.4022
C               -1.0484     -1.2794      0.4979
H               -0.1755      1.5717     -1.2577
H               -0.1366     -1.8609      0.4046
H               -1.8918     -1.9329      0.3341
H               -1.0957     -0.8690      1.4992
C                1.1676      0.7381      0.2733
H                1.6339      1.7030      0.4190
C                2.0452     -0.0850     -0.5622
H                1.0644      0.2692      1.2416
N                2.7210     -0.7300     -1.2143
H               -1.1330      1.9554      0.8018
14
P10 HEAT OF FORMATION = -201311.96478 KCAL = -842288.67036 KJ
C               -1.0849     -0.1841     -0.5404
O               -1.8704     -0.2295     -1.5008
C               -0.1931      0.9363     -0.3901
C               -1.0511     -1.2781      0.5008
H               -0.1756      1.5743     -1.2534
H               -0.1354     -1.8554      0.4146
H               -1.8902     -1.9366      0.3333
H               -1.1060     -0.8654      1.5014
C                1.1650      0.7417      0.2777
H                1.6358      1.7044      0.4243
C                2.0363     -0.0827     -0.5624
H                1.0641      0.2710      1.2455
N                2.7074     -0.7286     -1.2184
H               -1.1020      1.9328      0.7677
14
P11 HEAT OF FORMATION = -201320.11862 KCAL = -842322.78598 KJ
C               -1.0857     -0.1854     -0.5405
O               -1.8597     -0.2362     -1.5059
C               -0.2001      0.9487     -0.3778
C               -1.0530     -1.2772      0.5033
H               -0.1754      1.5768     -1.2488
H               -0.1356     -1.8515      0.4214
H               -1.8892     -1.9389      0.3344
H               -1.1122     -0.8630      1.5027
C                1.1623      0.7456      0.2825
H                1.6379      1.7061      0.4289
C                2.0272     -0.0806     -0.5619
H                1.0638      0.2743      1.2503
N                2.6935     -0.7284     -1.2208
H               -1.0738      1.9097      0.7321
14
P12 HEAT OF FORMATION = -201328.38397 KCAL = -842357.36820 KJ
C               -1.0856     -0.1869     -0.5409
O               -1.8464     -0.2442     -1.5124
C               -0.2070      0.9612     -0.3653
C               -1.0559     -1.2755      0.5066
H               -0.1755      1.5800     -1.2435
H               -0.1349     -1.8458      0.4331
H               -1.8876     -1.9421      0.3338
H               -1.1237     -0.8585      1.5046
C                1.1601      0.7493      0.2865
H                1.6403      1.7076      0.4338
C                2.0181     -0.0782     -0.5628
H                1.0644      0.2759      1.2539
N                2.6792     -0.7272     -1.2260
H               -1.0454      1.8844      0.6987
14
P13 HEAT OF FORMATION = -201336.69613 KCAL = -842392.14625 KJ
C               -1.0863     -0.1883     -0.5409
O               -1.8350     -0.2513     -1.5174
C               -0.2142      0.9732     -0.3534
C               -1.0586     -1.2744      0.5095
H               -0.1755      1.5817     -1.2392
H               -0.1352     -1.8411      0.4420
H               -1.8866     -1.9449      0.3342
H               -1.1326     -0.8556      1.5062
C                1.1572      0.7528      0.2908
H                1.6418      1.7089      0.4388
C                2.0095     -0.0754     -0.5631
H                1.0637      0.2779      1.2578
N                2.6666     -0.7250     -1.2295
H               -1.0149      1.8612      0.6642
14
P14 HEAT OF FORMATION = -201344.95837 KCAL = -842426.71545 KJ
C               -1.0862     -0.1898     -0.5411
O               -1.8213     -0.2594     -1.5236
C               -0.2212      0.9852     -0.3414
C               -1.0620     -1.2728      0.5130
H               -0.1757      1.5840     -1.2343
H               -0.1355     -1.8354      0.4540
H               -1.8855     -1.9479      0.3339
H               -1.1447     -0.8513      1.5080
C                1.1547      0.7561      0.2946
H                1.6434      1.7102      0.4440
C                2.0011     -0.0721     -0.5643
H                1.0638      0.2788      1.2609
N                2.6538     -0.7218     -1.2349
H               -0.9847      1.8362      0.6312
14
P15 HEAT OF FORMATION = -201353.04248 KCAL = -842460.53934 KJ
C               -1.0853     -0.1917     -0.5421
O               -1.8048     -0.2686     -1.5315
C               -0.2282      0.9971     -0.3293
C               -1.0659     -1.2706      0.5168
H               -0.1768      1.5874     -1.2284
H               -0.1372     -1.8301      0.4670
H               -1.8855     -1.9497      0.3345
H               -1.1572     -0.8455      1.5094
C                1.1525      0.7596      0.2979
H                1.6453      1.7116      0.4484
C                1.9928     -0.0686     -0.5662
H                1.0644      0.2800      1.2636
N                2.6412     -0.7185     -1.2407
H               -0.9553      1.8075      0.6006
14
P16 HEAT OF FORMATION = -201360.75812 KCAL = -842492.82155 KJ
C               -1.0839     -0.1939     -0.5427
O               -1.7861     -0.2790     -1.5399
C               -0.2351      1.0086     -0.3169
C               -1.0710     -1.2682      0.5213
H               -0.1781      1.5907     -1.2220
H               -0.1399     -1.8245      0.4825
H               -1.8862     -1.9516      0.3346
H               -1.1724     -0.8391      1.5112
C                1.1506      0.7628      0.3009
H                1.6470      1.7128      0.4534
C                1.9851     -0.0641     -0.5693
H                1.0658      0.2798      1.2654
N                2.6294     -0.7131     -1.2487
H               -0.9254      1.7788      0.5702
14
P17 HEAT OF FORMATION = -201367.82896 KCAL = -842522.40592 KJ
C               -1.0818     -0.1964     -0.5436
O               -1.7650     -0.2902     -1.5494
C               -0.2418      1.0200     -0.3045
C               -1.0767     -1.2655      0.5262
H               -0.1800      1.5947     -1.2147
H               -0.1431     -1.8186      0.4997
H               -1.8873     -1.9531      0.3349
H               -1.1894     -0.8317      1.5130
C                1.1491      0.7658      0.3035
H                1.6490      1.7138      0.4583
C                1.9775     -0.0592     -0.5734
H                1.0677      0.2791      1.2667
N                2.6179     -0.7068     -1.2577
H               -0.8960      1.7482      0.5410
14
P18 HEAT OF FORMATION = -201373.83871 KCAL = -842547.55067 KJ
C               -1.0801     -0.1988     -0.5443
O               -1.7454     -0.3004     -1.5576
C               -0.2482      1.0305     -0.2924
C               -1.0825     -1.2632      0.5310
H               -0.1812      1.5977     -1.2079
H               -0.1470     -1.8139      0.5157
H               -1.8892     -1.9544      0.3360
H               -1.2050     -0.8250      1.5149
C                1.1475      0.7687      0.3066
H                1.6502      1.7151      0.4637
C                1.9706     -0.0537     -0.5770
H                1.0696      0.2782      1.2683
N                2.6072     -0.6995     -1.2667
H               -0.8664      1.7186      0.5098
14
P19 HEAT OF FORMATION = -201378.16135 KCAL = -842565.63661 KJ
C               -1.0773     -0.2018     -0.5451
O               -1.7205     -0.3131     -1.5677
C               -0.2546      1.0409     -0.2798
C               -1.0898     -1.2602      0.5368
H               -0.1836      1.6016     -1.1999
H               -0.1527     -1.8084      0.5351
H               -1.8922     -1.9552      0.3369
H               -1.2242     -0.8166      1.5168
C                1.1465      0.7715      0.3089
H                1.6517      1.7162      0.4692
C                1.9639     -0.0472     -0.5825
H                1.0724      0.2760      1.2686
N                2.5969     -0.6902     -1.2783
H               -0.8367      1.6866      0.4809
14
P20 HEAT OF FORMATION = -201379.86234 KCAL = -842572.75353 KJ
C               -1.0726     -0.2062     -0.5460
O               -1.6884     -0.3295     -1.5803
C               -0.2607      1.0504     -0.2662
C               -1.0996     -1.2566      0.5439
H               -0.1879      1.6073     -1.1892
H               -0.1612     -1.8022      0.5601
H               -1.8970     -1.9557      0.3376
H               -1.2493     -0.8058      1.5184
C                1.1466      0.7740      0.3101
H                1.6539      1.7172      0.4745
C                1.9580     -0.0392     -0.5909
H                1.0776      0.2722      1.2672
N                2.5872     -0.6777     -1.2940
H               -0.8066      1.6516      0.4548
