27
P1 HEAT OF FORMATION = -112.42290 KCAL = -470.37709 KJ
C               -0.7593     -1.4738     -1.4564
C               -0.0268     -0.7714     -0.3021
O                1.3733     -0.7886     -0.5500
C               -0.3539     -1.4926      1.0307
H               -0.4764     -1.0221     -2.4230
H               -1.8478     -1.3896     -1.3499
H               -0.5121     -2.5424     -1.5036
C                0.3000     -0.8053      2.2185
H               -0.0307     -2.5519      0.9804
H               -1.4537     -1.5227      1.1646
H                1.4027     -0.8930      2.1439
H                0.0181     -1.3264      3.1538
C               -0.0957      0.6602      2.2986
H                0.4409      1.1505      3.1334
H               -1.1742      0.7472      2.5405
C                0.2032      1.3867      0.9961
H                1.2963      1.4279      0.8172
H               -0.1350      2.4391      1.0670
C               -0.4974      0.6937     -0.1751
C               -0.3750      1.5708     -1.4234
H               -1.5954      0.6350      0.0718
O               -1.1915      2.4570     -1.6088
C                0.7427      1.3349     -2.3972
H                1.7151      1.3784     -1.8889
H                0.7549      2.0646     -3.2168
H                0.6333      0.3283     -2.8371
H                1.6443     -1.6944     -0.4842
27
P2 HEAT OF FORMATION = -111.97035 KCAL = -468.48363 KJ
C               -0.7580     -1.4716     -1.4573
C               -0.0333     -0.7675     -0.3008
O                1.3838     -0.7898     -0.5510
C               -0.3550     -1.4913      1.0305
H               -0.4676     -1.0230     -2.4232
H               -1.8471     -1.3855     -1.3581
H               -0.5120     -2.5407     -1.4997
C                0.3005     -0.8053      2.2181
H               -0.0302     -2.5499      0.9774
H               -1.4543     -1.5235      1.1669
H                1.4030     -0.8942      2.1427
H                0.0186     -1.3260      3.1535
C               -0.0932      0.6608      2.2980
H                0.4447      1.1511      3.1319
H               -1.1715      0.7493      2.5407
C                0.2054      1.3855      0.9943
H                1.2985      1.4269      0.8157
H               -0.1338      2.4377      1.0630
C               -0.4945      0.6898     -0.1752
C               -0.3783      1.5659     -1.4240
H               -1.6191      0.6337      0.0802
O               -1.2024      2.4444     -1.6119
C                0.7432      1.3374     -2.3954
H                1.7140      1.3837     -1.8845
H                0.7542      2.0687     -3.2135
H                0.6387      0.3312     -2.8371
H                1.6457     -1.6977     -0.4812
27
P3 HEAT OF FORMATION = -110.86295 KCAL = -463.85024 KJ
C               -0.7568     -1.4692     -1.4581
C               -0.0396     -0.7639     -0.2995
O                1.3946     -0.7917     -0.5520
C               -0.3562     -1.4903      1.0302
H               -0.4606     -1.0223     -2.4230
H               -1.8465     -1.3825     -1.3655
H               -0.5110     -2.5385     -1.4975
C                0.3009     -0.8051      2.2177
H               -0.0299     -2.5483      0.9748
H               -1.4553     -1.5244      1.1690
H                1.4031     -0.8957      2.1418
H                0.0183     -1.3252      3.1532
C               -0.0907      0.6616      2.2970
H                0.4489      1.1519      3.1300
H               -1.1686      0.7520      2.5407
C                0.2077      1.3842      0.9922
H                1.3008      1.4259      0.8135
H               -0.1322      2.4362      1.0587
C               -0.4914      0.6857     -0.1754
C               -0.3819      1.5607     -1.4249
H               -1.6420      0.6322      0.0902
O               -1.2137      2.4311     -1.6157
C                0.7437      1.3401     -2.3931
H                1.7127      1.3914     -1.8792
H                0.7529      2.0721     -3.2105
H                0.6463      0.3336     -2.8357
H                1.6466     -1.7017     -0.4789
27
P4 HEAT OF FORMATION = -109.17985 KCAL = -456.80816 KJ
C               -0.7557     -1.4670     -1.4591
C               -0.0458     -0.7602     -0.2983
O                1.4054     -0.7937     -0.5533
C               -0.3575     -1.4892      1.0298
H               -0.4539     -1.0213     -2.4228
H               -1.8459     -1.3799     -1.3727
H               -0.5097     -2.5363     -1.4957
C                0.3009     -0.8050      2.2173
H               -0.0300     -2.5467      0.9720
H               -1.4564     -1.5251      1.1707
H                1.4030     -0.8977      2.1413
H                0.0174     -1.3245      3.1529
C               -0.0880      0.6624      2.2961
H                0.4532      1.1524      3.1280
H               -1.1656      0.7549      2.5405
C                0.2104      1.3828      0.9901
H                1.3035      1.4246      0.8113
H               -0.1301      2.4347      1.0543
C               -0.4881      0.6815     -0.1756
C               -0.3857      1.5554     -1.4259
H               -1.6646      0.6315      0.1010
O               -1.2254      2.4175     -1.6196
C                0.7439      1.3429     -2.3910
H                1.7112      1.3992     -1.8742
H                0.7512      2.0757     -3.2077
H                0.6537      0.3361     -2.8347
H                1.6487     -1.7051     -0.4746
27
P5 HEAT OF FORMATION = -106.99038 KCAL = -447.64745 KJ
C               -0.7549     -1.4646     -1.4598
C               -0.0520     -0.7564     -0.2970
O                1.4161     -0.7959     -0.5546
C               -0.3586     -1.4882      1.0297
H               -0.4476     -1.0202     -2.4225
H               -1.8456     -1.3772     -1.3795
H               -0.5086     -2.5339     -1.4934
C                0.3011     -0.8049      2.2170
H               -0.0293     -2.5450      0.9692
H               -1.4572     -1.5263      1.1728
H                1.4030     -0.8991      2.1407
H                0.0171     -1.3239      3.1528
C               -0.0858      0.6631      2.2953
H                0.4563      1.1530      3.1266
H               -1.1632      0.7572      2.5400
C                0.2129      1.3815      0.9883
H                1.3062      1.4233      0.8100
H               -0.1282      2.4333      1.0501
C               -0.4845      0.6777     -0.1758
C               -0.3889      1.5503     -1.4268
H               -1.6871      0.6312      0.1107
O               -1.2365      2.4039     -1.6234
C                0.7445      1.3457     -2.3893
H                1.7101      1.4065     -1.8700
H                0.7495      2.0791     -3.2053
H                0.6607      0.3386     -2.8338
H                1.6507     -1.7089     -0.4720
27
P6 HEAT OF FORMATION = -104.35211 KCAL = -436.60893 KJ
C               -0.7539     -1.4625     -1.4601
C               -0.0578     -0.7524     -0.2957
O                1.4272     -0.7976     -0.5561
C               -0.3591     -1.4872      1.0294
H               -0.4420     -1.0197     -2.4221
H               -1.8450     -1.3754     -1.3851
H               -0.5069     -2.5318     -1.4907
C                0.3012     -0.8047      2.2170
H               -0.0277     -2.5432      0.9662
H               -1.4574     -1.5278      1.1745
H                1.4031     -0.8994      2.1403
H                0.0171     -1.3237      3.1526
C               -0.0849      0.6634      2.2949
H                0.4571      1.1536      3.1261
H               -1.1625      0.7582      2.5389
C                0.2147      1.3803      0.9873
H                1.3082      1.4227      0.8102
H               -0.1276      2.4317      1.0468
C               -0.4803      0.6740     -0.1762
C               -0.3905      1.5466     -1.4269
H               -1.7092      0.6311      0.1192
O               -1.2425      2.3957     -1.6233
C                0.7442      1.3472     -2.3891
H                1.7093      1.4110     -1.8691
H                0.7470      2.0814     -3.2045
H                0.6645      0.3402     -2.8342
H                1.6536     -1.7121     -0.4702
27
P7 HEAT OF FORMATION = -101.31458 KCAL = -423.89991 KJ
C               -0.7530     -1.4601     -1.4611
C               -0.0640     -0.7488     -0.2945
O                1.4379     -0.8009     -0.5573
C               -0.3607     -1.4862      1.0293
H               -0.4346     -1.0190     -2.4218
H               -1.8446     -1.3717     -1.3930
H               -0.5069     -2.5297     -1.4884
C                0.3013     -0.8047      2.2166
H               -0.0281     -2.5416      0.9636
H               -1.4587     -1.5284      1.1766
H                1.4029     -0.9014      2.1396
H                0.0165     -1.3229      3.1525
C               -0.0822      0.6642      2.2939
H                0.4611      1.1542      3.1243
H               -1.1595      0.7611      2.5383
C                0.2178      1.3788      0.9851
H                1.3114      1.4210      0.8084
H               -0.1248      2.4303      1.0420
C               -0.4763      0.6699     -0.1766
C               -0.3945      1.5410     -1.4281
H               -1.7310      0.6310      0.1299
O               -1.2557      2.3800     -1.6279
C                0.7445      1.3509     -2.3869
H                1.7075      1.4210     -1.8640
H                0.7443      2.0854     -3.2020
H                0.6731      0.3433     -2.8324
H                1.6563     -1.7166     -0.4658
27
P8 HEAT OF FORMATION = -97.91627 KCAL = -409.68137 KJ
C               -0.7520     -1.4581     -1.4616
C               -0.0697     -0.7449     -0.2932
O                1.4490     -0.8033     -0.5587
C               -0.3615     -1.4851      1.0291
H               -0.4295     -1.0179     -2.4214
H               -1.8440     -1.3705     -1.3985
H               -0.5047     -2.5274     -1.4864
C                0.3012     -0.8046      2.2165
H               -0.0272     -2.5399      0.9607
H               -1.4593     -1.5296      1.1783
H                1.4028     -0.9022      2.1392
H                0.0161     -1.3226      3.1523
C               -0.0811      0.6646      2.2933
H                0.4625      1.1548      3.1235
H               -1.1585      0.7626      2.5371
C                0.2200      1.3776      0.9838
H                1.3138      1.4202      0.8083
H               -0.1237      2.4288      1.0384
C               -0.4718      0.6661     -0.1771
C               -0.3965      1.5371     -1.4285
H               -1.7525      0.6314      0.1392
O               -1.2630      2.3702     -1.6287
C                0.7443      1.3529     -2.3865
H                1.7065      1.4262     -1.8625
H                0.7418      2.0881     -3.2009
H                0.6773      0.3453     -2.8328
H                1.6597     -1.7200     -0.4632
27
P9 HEAT OF FORMATION = -94.18789 KCAL = -394.08184 KJ
C               -0.7510     -1.4559     -1.4624
C               -0.0756     -0.7413     -0.2920
O                1.4599     -0.8064     -0.5600
C               -0.3630     -1.4841      1.0289
H               -0.4225     -1.0175     -2.4210
H               -1.8433     -1.3673     -1.4059
H               -0.5042     -2.5253     -1.4839
C                0.3011     -0.8046      2.2162
H               -0.0275     -2.5383      0.9580
H               -1.4605     -1.5302      1.1801
H                1.4025     -0.9039      2.1386
H                0.0153     -1.3220      3.1522
C               -0.0789      0.6652      2.2924
H                0.4655      1.1552      3.1220
H               -1.1562      0.7651      2.5362
C                0.2229      1.3762      0.9820
H                1.3168      1.4188      0.8072
H               -0.1214      2.4272      1.0341
C               -0.4672      0.6621     -0.1776
C               -0.3997      1.5322     -1.4293
H               -1.7738      0.6314      0.1494
O               -1.2740      2.3566     -1.6316
C                0.7440      1.3561     -2.3852
H                1.7047      1.4343     -1.8591
H                0.7388      2.0918     -3.1990
H                0.6837      0.3483     -2.8320
H                1.6637     -1.7237     -0.4584
27
P10 HEAT OF FORMATION = -90.15179 KCAL = -377.19484 KJ
C               -0.7499     -1.4539     -1.4628
C               -0.0810     -0.7373     -0.2908
O                1.4713     -0.8088     -0.5614
C               -0.3637     -1.4832      1.0287
H               -0.4168     -1.0170     -2.4205
H               -1.8425     -1.3655     -1.4117
H               -0.5026     -2.5233     -1.4812
C                0.3008     -0.8046      2.2163
H               -0.0261     -2.5365      0.9551
H               -1.4610     -1.5318      1.1815
H                1.4021     -0.9047      2.1388
H                0.0144     -1.3217      3.1522
C               -0.0782      0.6656      2.2919
H                0.4659      1.1557      3.1217
H               -1.1557      0.7664      2.5346
C                0.2252      1.3749      0.9810
H                1.3194      1.4178      0.8079
H               -0.1199      2.4257      1.0306
C               -0.4622      0.6584     -0.1782
C               -0.4014      1.5286     -1.4294
H               -1.7947      0.6321      0.1587
O               -1.2804      2.3481     -1.6311
C                0.7432      1.3580     -2.3854
H                1.7035      1.4397     -1.8590
H                0.7350      2.0941     -3.1988
H                0.6873      0.3501     -2.8325
H                1.6680     -1.7270     -0.4562
27
P11 HEAT OF FORMATION = -85.82426 KCAL = -359.08845 KJ
C               -0.7489     -1.4518     -1.4635
C               -0.0867     -0.7336     -0.2896
O                1.4823     -0.8122     -0.5630
C               -0.3651     -1.4822      1.0284
H               -0.4103     -1.0166     -2.4201
H               -1.8417     -1.3627     -1.4186
H               -0.5018     -2.5212     -1.4787
C                0.3004     -0.8046      2.2161
H               -0.0262     -2.5348      0.9523
H               -1.4621     -1.5324      1.1830
H                1.4016     -0.9063      2.1385
H                0.0133     -1.3212      3.1520
C               -0.0765      0.6661      2.2911
H                0.4682      1.1561      3.1205
H               -1.1539      0.7687      2.5332
C                0.2282      1.3734      0.9794
H                1.3226      1.4163      0.8073
H               -0.1174      2.4242      1.0265
C               -0.4571      0.6544     -0.1788
C               -0.4042      1.5242     -1.4300
H               -1.8154      0.6324      0.1688
O               -1.2903      2.3355     -1.6329
C                0.7426      1.3611     -2.3846
H                1.7017      1.4474     -1.8569
H                0.7314      2.0977     -3.1976
H                0.6925      0.3531     -2.8321
H                1.6728     -1.7307     -0.4507
27
P12 HEAT OF FORMATION = -81.21569 KCAL = -339.80620 KJ
C               -0.7479     -1.4499     -1.4641
C               -0.0924     -0.7298     -0.2885
O                1.4934     -0.8153     -0.5646
C               -0.3664     -1.4812      1.0282
H               -0.4053     -1.0154     -2.4196
H               -1.8411     -1.3620     -1.4241
H               -0.4994     -2.5190     -1.4770
C                0.3000     -0.8047      2.2160
H               -0.0260     -2.5332      0.9495
H               -1.4632     -1.5334      1.1845
H                1.4010     -0.9077      2.1384
H                0.0121     -1.3208      3.1519
C               -0.0752      0.6666      2.2903
H                0.4696      1.1565      3.1196
H               -1.1528      0.7706      2.5315
C                0.2310      1.3720      0.9780
H                1.3257      1.4148      0.8074
H               -0.1151      2.4226      1.0225
C               -0.4518      0.6505     -0.1796
C               -0.4064      1.5202     -1.4305
H               -1.8359      0.6333      0.1787
O               -1.2983      2.3250     -1.6335
C                0.7419      1.3638     -2.3844
H                1.7001      1.4542     -1.8558
H                0.7275      2.1006     -3.1970
H                0.6971      0.3556     -2.8321
H                1.6778     -1.7339     -0.4458
27
P13 HEAT OF FORMATION = -76.33266 KCAL = -319.37562 KJ
C               -0.7467     -1.4479     -1.4647
C               -0.0978     -0.7260     -0.2874
O                1.5046     -0.8186     -0.5663
C               -0.3674     -1.4803      1.0279
H               -0.3983     -1.0156     -2.4191
H               -1.8400     -1.3591     -1.4311
H               -0.4988     -2.5172     -1.4739
C                0.2994     -0.8047      2.2160
H               -0.0252     -2.5314      0.9467
H               -1.4639     -1.5347      1.1857
H                1.4004     -0.9089      2.1386
H                0.0108     -1.3205      3.1519
C               -0.0742      0.6669      2.2896
H                0.4703      1.1568      3.1191
H               -1.1521      0.7723      2.5295
C                0.2339      1.3705      0.9768
H                1.3289      1.4133      0.8078
H               -0.1128      2.4211      1.0187
C               -0.4462      0.6466     -0.1803
C               -0.4085      1.5166     -1.4307
H               -1.8560      0.6342      0.1887
O               -1.3058      2.3153     -1.6330
C                0.7405      1.3663     -2.3847
H                1.6984      1.4598     -1.8558
H                0.7232      2.1040     -3.1964
H                0.6999      0.3583     -2.8333
H                1.6835     -1.7371     -0.4403
27
P14 HEAT OF FORMATION = -71.17907 KCAL = -297.81302 KJ
C               -0.7456     -1.4460     -1.4652
C               -0.1033     -0.7222     -0.2863
O                1.5158     -0.8220     -0.5679
C               -0.3687     -1.4793      1.0277
H               -0.3932     -1.0148     -2.4187
H               -1.8392     -1.3580     -1.4367
H               -0.4966     -2.5151     -1.4718
C                0.2988     -0.8047      2.2160
H               -0.0249     -2.5297      0.9438
H               -1.4649     -1.5357      1.1870
H                1.3996     -0.9102      2.1388
H                0.0093     -1.3201      3.1519
C               -0.0732      0.6674      2.2889
H                0.4711      1.1572      3.1185
H               -1.1513      0.7742      2.5274
C                0.2369      1.3691      0.9755
H                1.3322      1.4117      0.8082
H               -0.1102      2.4195      1.0148
C               -0.4404      0.6428     -0.1811
C               -0.4104      1.5129     -1.4309
H               -1.8759      0.6350      0.1986
O               -1.3135      2.3051     -1.6329
C                0.7395      1.3691     -2.3848
H                1.6967      1.4670     -1.8555
H                0.7187      2.1067     -3.1964
H                0.7040      0.3608     -2.8332
H                1.6890     -1.7405     -0.4358
27
P15 HEAT OF FORMATION = -65.75733 KCAL = -275.12847 KJ
C               -0.7445     -1.4442     -1.4658
C               -0.1086     -0.7183     -0.2852
O                1.5270     -0.8256     -0.5698
C               -0.3699     -1.4784      1.0273
H               -0.3874     -1.0144     -2.4182
H               -1.8382     -1.3566     -1.4429
H               -0.4948     -2.5131     -1.4693
C                0.2980     -0.8048      2.2161
H               -0.0245     -2.5280      0.9409
H               -1.4659     -1.5368      1.1880
H                1.3987     -0.9116      2.1391
H                0.0076     -1.3198      3.1518
C               -0.0724      0.6677      2.2881
H                0.4715      1.1575      3.1179
H               -1.1507      0.7759      2.5251
C                0.2400      1.3675      0.9743
H                1.3357      1.4099      0.8088
H               -0.1074      2.4179      1.0109
C               -0.4344      0.6389     -0.1820
C               -0.4123      1.5096     -1.4310
H               -1.8955      0.6359      0.2085
O               -1.3205      2.2961     -1.6317
C                0.7379      1.3718     -2.3854
H                1.6948      1.4732     -1.8563
H                0.7136      2.1098     -3.1965
H                0.7067      0.3635     -2.8343
H                1.6954     -1.7434     -0.4287
27
P16 HEAT OF FORMATION = -60.06935 KCAL = -251.32997 KJ
C               -0.7433     -1.4424     -1.4661
C               -0.1138     -0.7143     -0.2841
O                1.5384     -0.8291     -0.5713
C               -0.3709     -1.4775      1.0271
H               -0.3821     -1.0139     -2.4176
H               -1.8372     -1.3554     -1.4484
H               -0.4927     -2.5111     -1.4667
C                0.2972     -0.8048      2.2163
H               -0.0234     -2.5262      0.9381
H               -1.4666     -1.5383      1.1891
H                1.3978     -0.9125      2.1397
H                0.0058     -1.3194      3.1519
C               -0.0720      0.6681      2.2875
H                0.4711      1.1580      3.1178
H               -1.1507      0.7774      2.5225
C                0.2430      1.3661      0.9734
H                1.3390      1.4083      0.8101
H               -0.1049      2.4164      1.0072
C               -0.4282      0.6352     -0.1828
C               -0.4136      1.5065     -1.4309
H               -1.9149      0.6368      0.2183
O               -1.3266      2.2878     -1.6300
C                0.7365      1.3742     -2.3862
H                1.6933      1.4788     -1.8575
H                0.7086      2.1124     -3.1969
H                0.7091      0.3658     -2.8353
H                1.7011     -1.7469     -0.4253
27
P17 HEAT OF FORMATION = -54.11864 KCAL = -226.43223 KJ
C               -0.7420     -1.4407     -1.4667
C               -0.1192     -0.7105     -0.2830
O                1.5495     -0.8330     -0.5729
C               -0.3723     -1.4766      1.0269
H               -0.3763     -1.0133     -2.4170
H               -1.8361     -1.3546     -1.4545
H               -0.4905     -2.5092     -1.4645
C                0.2961     -0.8048      2.2164
H               -0.0231     -2.5245      0.9353
H               -1.4678     -1.5395      1.1900
H                1.3966     -0.9141      2.1404
H                0.0035     -1.3189      3.1519
C               -0.0711      0.6685      2.2866
H                0.4714      1.1584      3.1172
H               -1.1501      0.7797      2.5197
C                0.2465      1.3645      0.9721
H                1.3429      1.4060      0.8106
H               -0.1012      2.4149      1.0030
C               -0.4218      0.6312     -0.1838
C               -0.4157      1.5030     -1.4311
H               -1.9338      0.6381      0.2292
O               -1.3343      2.2779     -1.6289
C                0.7348      1.3772     -2.3867
H                1.6912      1.4860     -1.8580
H                0.7031      2.1157     -3.1970
H                0.7122      0.3688     -2.8359
H                1.7075     -1.7502     -0.4194
27
P18 HEAT OF FORMATION = -47.90933 KCAL = -200.45249 KJ
C               -0.7409     -1.4390     -1.4671
C               -0.1246     -0.7066     -0.2819
O                1.5607     -0.8369     -0.5749
C               -0.3736     -1.4757      1.0266
H               -0.3714     -1.0126     -2.4165
H               -1.8352     -1.3540     -1.4599
H               -0.4880     -2.5071     -1.4623
C                0.2951     -0.8050      2.2166
H               -0.0226     -2.5227      0.9324
H               -1.4689     -1.5407      1.1909
H                1.3955     -0.9155      2.1410
H                0.0014     -1.3185      3.1520
C               -0.0705      0.6688      2.2858
H                0.4713      1.1586      3.1169
H               -1.1499      0.7814      2.5169
C                0.2499      1.3629      0.9710
H                1.3467      1.4039      0.8116
H               -0.0980      2.4133      0.9992
C               -0.4152      0.6273     -0.1847
C               -0.4171      1.5000     -1.4310
H               -1.9529      0.6389      0.2388
O               -1.3406      2.2693     -1.6269
C                0.7331      1.3800     -2.3877
H                1.6894      1.4926     -1.8597
H                0.6974      2.1186     -3.1977
H                0.7147      0.3715     -2.8370
H                1.7143     -1.7530     -0.4123
27
P19 HEAT OF FORMATION = -41.44800 KCAL = -173.41833 KJ
C               -0.7395     -1.4374     -1.4679
C               -0.1299     -0.7028     -0.2811
O                1.5717     -0.8412     -0.5771
C               -0.3752     -1.4749      1.0261
H               -0.3658     -1.0120     -2.4161
H               -1.8339     -1.3537     -1.4661
H               -0.4853     -2.5051     -1.4603
C                0.2936     -0.8052      2.2166
H               -0.0225     -2.5211      0.9294
H               -1.4702     -1.5419      1.1914
H                1.3939     -0.9174      2.1419
H               -0.0017     -1.3180      3.1519
C               -0.0697      0.6692      2.2847
H                0.4714      1.1588      3.1163
H               -1.1495      0.7838      2.5134
C                0.2540      1.3611      0.9696
H                1.3512      1.4009      0.8123
H               -0.0933      2.4117      0.9948
C               -0.4085      0.6233     -0.1859
C               -0.4192      1.4969     -1.4310
H               -1.9710      0.6403      0.2506
O               -1.3480      2.2602     -1.6248
C                0.7308      1.3833     -2.3887
H                1.6869      1.4999     -1.8613
H                0.6909      2.1221     -3.1984
H                0.7168      0.3748     -2.8381
H                1.7218     -1.7555     -0.4022
27
P20 HEAT OF FORMATION = -34.74315 KCAL = -145.36522 KJ
C               -0.7381     -1.4358     -1.4683
C               -0.1350     -0.6988     -0.2801
O                1.5831     -0.8452     -0.5787
C               -0.3762     -1.4740      1.0259
H               -0.3600     -1.0119     -2.4154
H               -1.8326     -1.3529     -1.4720
H               -0.4830     -2.5033     -1.4576
C                0.2922     -0.8051      2.2170
H               -0.0212     -2.5192      0.9266
H               -1.4710     -1.5438      1.1920
H                1.3925     -0.9185      2.1432
H               -0.0045     -1.3175      3.1521
C               -0.0697      0.6697      2.2839
H                0.4700      1.1593      3.1163
H               -1.1500      0.7855      2.5098
C                0.2576      1.3595      0.9686
H                1.3552      1.3985      0.8139
H               -0.0894      2.4102      0.9908
C               -0.4014      0.6194     -0.1870
C               -0.4204      1.4943     -1.4307
H               -1.9891      0.6413      0.2617
O               -1.3535      2.2529     -1.6215
C                0.7285      1.3860     -2.3901
H                1.6849      1.5059     -1.8639
H                0.6846      2.1249     -3.1994
H                0.7180      0.3774     -2.8397
H                1.7284     -1.7587     -0.3974
