20
P1 HEAT OF FORMATION = -76.57967 KCAL = -320.40912 KJ
C                0.1094     -1.5159     -0.1967
C                0.8758     -0.4053     -0.8204
C                1.6211     -0.5501     -1.9217
C                0.7855      0.9248     -0.1743
H                1.7182     -1.5148     -2.4372
H                2.1724      0.2894     -2.3685
O                0.8828      2.0129     -0.6709
O                0.5976      0.8479      1.1921
C                0.4865      2.0890      1.8853
H               -0.4075      2.6494      1.5193
H                1.4089      2.6994      1.7315
H                0.3720      1.7883      2.9556
H                0.4397     -2.4991     -0.6258
C               -1.3989     -1.3876     -0.4292
H                0.3222     -1.5341      0.9068
H               -1.8883     -2.2676      0.0871
H               -1.6099     -1.4915     -1.5319
N               -1.9449     -0.1219     -0.0068
H               -1.5987      0.1442      0.8945
H               -2.9438     -0.1573      0.0113
20
P2 HEAT OF FORMATION = -76.74808 KCAL = -321.11373 KJ
C                0.1107     -1.5275     -0.2057
C                0.8788     -0.4144     -0.8224
C                1.6386     -0.5546     -1.9139
C                0.7657      0.9143     -0.1782
H                1.7496     -1.5191     -2.4270
H                2.1882      0.2888     -2.3559
O                0.8262      2.0066     -0.6815
O                0.6146      0.8393      1.1922
C                0.4763      2.0800      1.8815
H               -0.4509      2.6011      1.5401
H                1.3679      2.7257      1.6948
H                0.4070      1.7826      2.9569
H                0.4252     -2.5078     -0.6519
C               -1.3985     -1.3765     -0.4193
H                0.3363     -1.5612      0.8950
H               -1.8973     -2.2443      0.1078
H               -1.6247     -1.4820     -1.5190
N               -1.9130     -0.0972      0.0017
H               -1.5884      0.1443      0.9178
H               -2.9125     -0.0980     -0.0130
20
P3 HEAT OF FORMATION = -76.80205 KCAL = -321.33957 KJ
C                0.1060     -1.5383     -0.2196
C                0.8814     -0.4234     -0.8243
C                1.6693     -0.5620     -1.8952
C                0.7357      0.9049     -0.1865
H                1.8008     -1.5279     -2.4011
H                2.2234      0.2834     -2.3275
O                0.7291      1.9981     -0.7010
O                0.6433      0.8357      1.1889
C                0.4750      2.0749      1.8740
H               -0.4889      2.5487      1.5672
H                1.3267      2.7601      1.6457
H                0.4639      1.7846      2.9535
H                0.4041     -2.5151     -0.6838
C               -1.4029     -1.3622     -0.4170
H                0.3411     -1.5911      0.8785
H               -1.9111     -2.2259      0.1077
H               -1.6415     -1.4532     -1.5151
N               -1.8877     -0.0773      0.0226
H               -1.5821      0.1295      0.9535
H               -2.8857     -0.0436     -0.0205
20
P4 HEAT OF FORMATION = -76.72548 KCAL = -321.01919 KJ
C                0.1001     -1.5516     -0.2361
C                0.8838     -0.4341     -0.8254
C                1.7011     -0.5688     -1.8742
C                0.7061      0.8932     -0.1939
H                1.8544     -1.5345     -2.3734
H                2.2605      0.2793     -2.2925
O                0.6325      1.9836     -0.7191
O                0.6761      0.8350      1.1837
C                0.4729      2.0726      1.8631
H               -0.5260      2.4925      1.5928
H                1.2776      2.7981      1.5920
H                0.5230      1.7954      2.9443
H                0.3796     -2.5234     -0.7217
C               -1.4078     -1.3469     -0.4140
H                0.3460     -1.6278      0.8581
H               -1.9268     -2.2100      0.1015
H               -1.6588     -1.4155     -1.5111
N               -1.8604     -0.0603      0.0533
H               -1.5806      0.1047      1.0005
H               -2.8532      0.0187     -0.0280
20
P5 HEAT OF FORMATION = -76.49582 KCAL = -320.05828 KJ
C                0.0949     -1.5636     -0.2520
C                0.8851     -0.4428     -0.8265
C                1.7302     -0.5738     -1.8529
C                0.6743      0.8824     -0.2007
H                1.9031     -1.5398     -2.3455
H                2.2947      0.2767     -2.2597
O                0.5339      1.9671     -0.7335
O                0.7028      0.8371      1.1771
C                0.4740      2.0715      1.8538
H               -0.5516      2.4465      1.6192
H                1.2362      2.8271      1.5451
H                0.5774      1.8070      2.9349
H                0.3578     -2.5289     -0.7587
C               -1.4119     -1.3349     -0.4110
H                0.3507     -1.6625      0.8382
H               -1.9397     -2.1947      0.1002
H               -1.6751     -1.3859     -1.5061
N               -1.8341     -0.0457      0.0776
H               -1.5838      0.0821      1.0386
H               -2.8190      0.0751     -0.0382
20
P6 HEAT OF FORMATION = -76.08121 KCAL = -318.32354 KJ
C                0.0899     -1.5778     -0.2693
C                0.8845     -0.4515     -0.8271
C                1.7554     -0.5761     -1.8321
C                0.6440      0.8706     -0.2054
H                1.9476     -1.5409     -2.3199
H                2.3233      0.2781     -2.2257
O                0.4472      1.9484     -0.7439
O                0.7266      0.8408      1.1700
C                0.4735      2.0720      1.8438
H               -0.5710      2.4086      1.6370
H                1.1986      2.8513      1.5064
H                0.6182      1.8210      2.9232
H                0.3361     -2.5342     -0.7998
C               -1.4157     -1.3258     -0.4055
H                0.3569     -1.7024      0.8154
H               -1.9509     -2.1806      0.1057
H               -1.6936     -1.3628     -1.4974
N               -1.8054     -0.0336      0.1015
H               -1.5871      0.0606      1.0736
H               -2.7781      0.1345     -0.0504
20
P7 HEAT OF FORMATION = -75.44391 KCAL = -315.65709 KJ
C                0.0865     -1.5922     -0.2845
C                0.8823     -0.4593     -0.8275
C                1.7738     -0.5755     -1.8151
C                0.6146      0.8589     -0.2079
H                1.9841     -1.5381     -2.2996
H                2.3423      0.2836     -2.1969
O                0.3750      1.9308     -0.7503
O                0.7429      0.8439      1.1639
C                0.4730      2.0725      1.8359
H               -0.5843      2.3808      1.6519
H                1.1692      2.8679      1.4766
H                0.6496      1.8325      2.9129
H                0.3180     -2.5393     -0.8374
C               -1.4180     -1.3209     -0.3976
H                0.3651     -1.7410      0.7942
H               -1.9584     -2.1678      0.1201
H               -1.7119     -1.3521     -1.4854
N               -1.7759     -0.0233      0.1193
H               -1.5969      0.0447      1.1014
H               -2.7311      0.1937     -0.0742
20
P8 HEAT OF FORMATION = -74.54892 KCAL = -311.91246 KJ
C                0.0807     -1.6092     -0.3048
C                0.8775     -0.4674     -0.8273
C                1.7937     -0.5729     -1.7927
C                0.5818      0.8464     -0.2102
H                2.0243     -1.5325     -2.2739
H                2.3638      0.2918     -2.1590
O                0.3071      1.9122     -0.7576
O                0.7541      0.8498      1.1563
C                0.4733      2.0780      1.8241
H               -0.5926      2.3661      1.6577
H                1.1484      2.8831      1.4457
H                0.6739      1.8498      2.8996
H                0.2964     -2.5429     -0.8856
C               -1.4222     -1.3183     -0.3898
H                0.3724     -1.7885      0.7656
H               -1.9667     -2.1601      0.1313
H               -1.7339     -1.3362     -1.4727
N               -1.7461     -0.0194      0.1454
H               -1.6081      0.0186      1.1351
H               -2.6780      0.2516     -0.0871
20
P9 HEAT OF FORMATION = -73.37079 KCAL = -306.98317 KJ
C                0.0746     -1.6276     -0.3260
C                0.8713     -0.4758     -0.8260
C                1.8109     -0.5684     -1.7697
C                0.5486      0.8333     -0.2104
H                2.0615     -1.5235     -2.2497
H                2.3819      0.3030     -2.1182
O                0.2465      1.8935     -0.7634
O                0.7632      0.8562      1.1499
C                0.4741      2.0854      1.8122
H               -0.5990      2.3562      1.6625
H                1.1302      2.8973      1.4146
H                0.6974      1.8698      2.8861
H                0.2743     -2.5459     -0.9360
C               -1.4266     -1.3186     -0.3810
H                0.3796     -1.8394      0.7346
H               -1.9739     -2.1547      0.1452
H               -1.7573     -1.3253     -1.4583
N               -1.7155     -0.0186      0.1712
H               -1.6259     -0.0081      1.1666
H               -2.6159      0.3113     -0.1043
20
P10 HEAT OF FORMATION = -71.91110 KCAL = -300.87581 KJ
C                0.0712     -1.6452     -0.3416
C                0.8645     -0.4830     -0.8232
C                1.8201     -0.5617     -1.7519
C                0.5174      0.8201     -0.2061
H                2.0881     -1.5123     -2.2316
H                2.3876      0.3167     -2.0878
O                0.1978      1.8780     -0.7631
O                0.7695      0.8589      1.1474
C                0.4766      2.0884      1.8072
H               -0.6075      2.3316      1.6967
H                1.0962      2.9115      1.3761
H                0.7461      1.8906      2.8736
H                0.2584     -2.5494     -0.9758
C               -1.4286     -1.3226     -0.3699
H                0.3881     -1.8836      0.7098
H               -1.9763     -2.1476      0.1719
H               -1.7780     -1.3328     -1.4411
N               -1.6855     -0.0172      0.1855
H               -1.6751     -0.0231      1.1838
H               -2.5306      0.3827     -0.1598
20
P11 HEAT OF FORMATION = -70.18244 KCAL = -293.64311 KJ
C                0.0651     -1.6642     -0.3629
C                0.8566     -0.4911     -0.8201
C                1.8315     -0.5542     -1.7297
C                0.4853      0.8061     -0.2015
H                2.1184     -1.4986     -2.2107
H                2.3972      0.3321     -2.0477
O                0.1552      1.8625     -0.7642
O                0.7730      0.8625      1.1448
C                0.4771      2.0937      1.7997
H               -0.6144      2.3157      1.7200
H                1.0673      2.9234      1.3412
H                0.7820      1.9133      2.8596
H                0.2366     -2.5495     -1.0275
C               -1.4329     -1.3279     -0.3576
H                0.3960     -1.9373      0.6756
H               -1.9774     -2.1410      0.2035
H               -1.8073     -1.3425     -1.4202
N               -1.6563     -0.0169      0.1994
H               -1.7060     -0.0284      1.1958
H               -2.4470      0.4422     -0.1974
20
P12 HEAT OF FORMATION = -68.21409 KCAL = -285.40757 KJ
C                0.0576     -1.6820     -0.3858
C                0.8476     -0.4984     -0.8173
C                1.8429     -0.5458     -1.7054
C                0.4510      0.7922     -0.1967
H                2.1487     -1.4838     -2.1871
H                2.4074      0.3479     -2.0039
O                0.1136      1.8483     -0.7649
O                0.7734      0.8655      1.1418
C                0.4789      2.0988      1.7925
H               -0.6180      2.3037      1.7442
H                1.0421      2.9326      1.3075
H                0.8184      1.9346      2.8450
H                0.2136     -2.5467     -1.0800
C               -1.4376     -1.3343     -0.3458
H                0.4022     -1.9896      0.6381
H               -1.9757     -2.1346      0.2382
H               -1.8389     -1.3562     -1.3981
N               -1.6298     -0.0169      0.2085
H               -1.7319     -0.0255      1.2004
H               -2.3657      0.4900     -0.2313
20
P13 HEAT OF FORMATION = -66.04203 KCAL = -276.31965 KJ
C                0.0506     -1.6987     -0.4090
C                0.8388     -0.5048     -0.8148
C                1.8521     -0.5358     -1.6824
C                0.4183      0.7786     -0.1909
H                2.1760     -1.4669     -2.1657
H                2.4143      0.3656     -1.9615
O                0.0869      1.8383     -0.7650
O                0.7654      0.8642      1.1425
C                0.4793      2.1020      1.7872
H               -0.6195      2.2995      1.7650
H                1.0239      2.9349      1.2800
H                0.8460      1.9514      2.8322
H                0.1902     -2.5418     -1.1324
C               -1.4413     -1.3415     -0.3324
H                0.4096     -2.0408      0.5989
H               -1.9684     -2.1249      0.2826
H               -1.8738     -1.3799     -1.3717
N               -1.6049     -0.0135      0.2078
H               -1.7446     -0.0086      1.1948
H               -2.2990      0.5229     -0.2651
20
P14 HEAT OF FORMATION = -63.72299 KCAL = -266.61682 KJ
C                0.0431     -1.7146     -0.4329
C                0.8301     -0.5111     -0.8115
C                1.8616     -0.5257     -1.6578
C                0.3841      0.7645     -0.1850
H                2.2032     -1.4493     -2.1430
H                2.4218      0.3832     -1.9163
O                0.0632      1.8290     -0.7654
O                0.7530      0.8618      1.1441
C                0.4801      2.1066      1.7802
H               -0.6187      2.3067      1.7757
H                1.0173      2.9331      1.2552
H                0.8645      1.9665      2.8204
H                0.1669     -2.5346     -1.1850
C               -1.4449     -1.3487     -0.3209
H                0.4148     -2.0916      0.5577
H               -1.9609     -2.1155      0.3231
H               -1.9073     -1.4009     -1.3469
N               -1.5820     -0.0104      0.2048
H               -1.7386      0.0090      1.1892
H               -2.2513      0.5421     -0.2857
20
P15 HEAT OF FORMATION = -61.35357 KCAL = -256.70316 KJ
C                0.0231     -1.7340     -0.4779
C                0.8209     -0.5222     -0.8031
C                1.8906     -0.5220     -1.6000
C                0.3412      0.7467     -0.1814
H                2.2578     -1.4375     -2.0818
H                2.4582      0.3923     -1.8188
O                0.0184      1.8074     -0.7764
O                0.7468      0.8733      1.1375
C                0.4835      2.1289      1.7547
H               -0.6172      2.3130      1.7939
H                0.9838      2.9509      1.1873
H                0.9149      2.0205      2.7803
H                0.1230     -2.5124     -1.2762
C               -1.4565     -1.3519     -0.3223
H                0.4039     -2.1723      0.4832
H               -1.9687     -2.1203      0.3222
H               -1.9457     -1.3780     -1.3363
N               -1.5580     -0.0198      0.2299
H               -1.6886     -0.0150      1.2190
H               -2.2316      0.5525     -0.2336
20
P16 HEAT OF FORMATION = -59.02460 KCAL = -246.95875 KJ
C                0.0098     -1.7484     -0.5116
C                0.8135     -0.5307     -0.7982
C                1.9092     -0.5176     -1.5588
C                0.3044      0.7308     -0.1784
H                2.2965     -1.4261     -2.0380
H                2.4795      0.4018     -1.7485
O               -0.0090      1.7932     -0.7841
O                0.7389      0.8767      1.1334
C                0.4834      2.1384      1.7393
H               -0.6175      2.3096      1.8171
H                0.9508      2.9581      1.1411
H                0.9530      2.0527      2.7502
H                0.0893     -2.4940     -1.3429
C               -1.4624     -1.3547     -0.3174
H                0.3994     -2.2313      0.4242
H               -1.9658     -2.1146      0.3431
H               -1.9796     -1.3759     -1.3175
N               -1.5346     -0.0193      0.2370
H               -1.6538     -0.0135      1.2287
H               -2.2051      0.5648     -0.2186
20
P17 HEAT OF FORMATION = -56.84100 KCAL = -237.82256 KJ
C               -0.0044     -1.7615     -0.5488
C                0.8065     -0.5394     -0.7929
C                1.9287     -0.5136     -1.5125
C                0.2673      0.7142     -0.1749
H                2.3365     -1.4146     -1.9892
H                2.5017      0.4105     -1.6691
O               -0.0371      1.7776     -0.7920
O                0.7305      0.8800      1.1295
C                0.4846      2.1492      1.7217
H               -0.6144      2.3085      1.8411
H                0.9174      2.9647      1.0917
H                0.9944      2.0877      2.7152
H                0.0522     -2.4681     -1.4154
C               -1.4676     -1.3577     -0.3118
H                0.3942     -2.2930      0.3562
H               -1.9590     -2.1100      0.3661
H               -2.0151     -1.3748     -1.2954
N               -1.5113     -0.0190      0.2445
H               -1.6225     -0.0141      1.2384
H               -2.1826      0.5735     -0.2021
20
P18 HEAT OF FORMATION = -54.89165 KCAL = -229.66651 KJ
C               -0.0224     -1.7740     -0.5969
C                0.7984     -0.5486     -0.7838
C                1.9514     -0.5098     -1.4511
C                0.2245      0.6951     -0.1685
H                2.3809     -1.4016     -1.9257
H                2.5290      0.4175     -1.5640
O               -0.0762      1.7562     -0.7999
O                0.7214      0.8882      1.1249
C                0.4912      2.1693      1.6949
H               -0.6034      2.3282      1.8493
H                0.8982      2.9716      1.0324
H                1.0346      2.1340      2.6713
H                0.0093     -2.4284     -1.5047
C               -1.4745     -1.3636     -0.3097
H                0.3836     -2.3643      0.2673
H               -1.9512     -2.1158      0.3777
H               -2.0543     -1.3647     -1.2747
N               -1.4889     -0.0279      0.2626
H               -1.5814     -0.0353      1.2599
H               -2.1700      0.5738     -0.1612
20
P19 HEAT OF FORMATION = -53.21770 KCAL = -222.66272 KJ
C               -0.0363     -1.7841     -0.6371
C                0.7908     -0.5564     -0.7759
C                1.9673     -0.5037     -1.3991
C                0.1834      0.6763     -0.1610
H                2.4172     -1.3858     -1.8723
H                2.5447      0.4276     -1.4747
O               -0.1077      1.7384     -0.8037
O                0.7077      0.8898      1.1251
C                0.4987      2.1829      1.6731
H               -0.5908      2.3504      1.8545
H                0.8897      2.9699      0.9831
H                1.0683      2.1666      2.6349
H               -0.0265     -2.3909     -1.5776
C               -1.4781     -1.3704     -0.3055
H                0.3760     -2.4226      0.1882
H               -1.9377     -2.1180      0.3978
H               -2.0882     -1.3664     -1.2514
N               -1.4688     -0.0324      0.2710
H               -1.5533     -0.0454      1.2710
H               -2.1564      0.5742     -0.1406
20
P20 HEAT OF FORMATION = -51.80376 KCAL = -216.74679 KJ
C               -0.0471     -1.7920     -0.6719
C                0.7839     -0.5631     -0.7693
C                1.9781     -0.4963     -1.3546
C                0.1448      0.6581     -0.1533
H                2.4480     -1.3684     -1.8270
H                2.5514      0.4397     -1.3975
O               -0.1320      1.7235     -0.8049
O                0.6913      0.8865      1.1281
C                0.5061      2.1903      1.6558
H               -0.5777      2.3715      1.8586
H                0.8882      2.9618      0.9437
H                1.0962      2.1870      2.6055
H               -0.0586     -2.3546     -1.6399
C               -1.4785     -1.3777     -0.2978
H                0.3719     -2.4720      0.1159
H               -1.9158     -2.1160      0.4287
H               -2.1199     -1.3800     -1.2224
N               -1.4505     -0.0317      0.2702
H               -1.5369     -0.0415      1.2724
H               -2.1428      0.5749     -0.1404
20
P21 HEAT OF FORMATION = -50.54588 KCAL = -211.48383 KJ
C               -0.0564     -1.7981     -0.7044
C                0.7775     -0.5687     -0.7636
C                1.9866     -0.4884     -1.3139
C                0.1072      0.6405     -0.1456
H                2.4743     -1.3508     -1.7860
H                2.5550      0.4516     -1.3259
O               -0.1520      1.7107     -0.8046
O                0.6728      0.8802      1.1333
C                0.5135      2.1940      1.6413
H               -0.5638      2.3912      1.8635
H                0.8889      2.9499      0.9089
H                1.1226      2.2011      2.5791
H               -0.0886     -2.3178     -1.6955
C               -1.4769     -1.3854     -0.2882
H                0.3691     -2.5148      0.0460
H               -1.8868     -2.1114      0.4655
H               -2.1510     -1.4013     -1.1888
N               -1.4339     -0.0280      0.2637
H               -1.5283     -0.0298      1.2679
H               -2.1299      0.5753     -0.1529
20
P22 HEAT OF FORMATION = -49.22199 KCAL = -205.94464 KJ
C               -0.0647     -1.8031     -0.7354
C                0.7714     -0.5738     -0.7578
C                1.9931     -0.4798     -1.2751
C                0.0699      0.6228     -0.1375
H                2.4980     -1.3322     -1.7476
H                2.5551      0.4641     -1.2575
O               -0.1701      1.6985     -0.8030
O                0.6521      0.8722      1.1404
C                0.5215      2.1957      1.6277
H               -0.5486      2.4128      1.8664
H                0.8942      2.9343      0.8766
H                1.1470      2.2105      2.5546
H               -0.1174     -2.2799     -1.7469
C               -1.4739     -1.3937     -0.2775
H                0.3669     -2.5534     -0.0230
H               -1.8530     -2.1059      0.5047
H               -2.1800     -1.4261     -1.1522
N               -1.4182     -0.0231      0.2548
H               -1.5259     -0.0148      1.2604
H               -2.1176      0.5750     -0.1720
20
P23 HEAT OF FORMATION = -47.46126 KCAL = -198.57778 KJ
C               -0.0724     -1.8065     -0.7654
C                0.7655     -0.5782     -0.7520
C                1.9980     -0.4709     -1.2381
C                0.0331      0.6056     -0.1293
H                2.5195     -1.3128     -1.7110
H                2.5526      0.4764     -1.1921
O               -0.1848      1.6876     -0.8001
O                0.6280      0.8620      1.1504
C                0.5299      2.1947      1.6160
H               -0.5320      2.4354      1.8692
H                0.9024      2.9146      0.8468
H                1.1707      2.2148      2.5326
H               -0.1469     -2.2383     -1.7956
C               -1.4686     -1.4029     -0.2642
H                0.3655     -2.5896     -0.0940
H               -1.8100     -2.0979      0.5496
H               -2.2091     -1.4582     -1.1083
N               -1.4040     -0.0162      0.2411
H               -1.5319      0.0071      1.2474
H               -2.1053      0.5733     -0.2031
20
P24 HEAT OF FORMATION = -44.70811 KCAL = -187.05859 KJ
C               -0.0780     -1.8100     -0.7893
C                0.7595     -0.5816     -0.7466
C                1.9993     -0.4597     -1.2077
C               -0.0039      0.5892     -0.1214
H                2.5373     -1.2912     -1.6806
H                2.5440      0.4921     -1.1391
O               -0.1970      1.6790     -0.7954
O                0.6005      0.8492      1.1627
C                0.5392      2.1900      1.6073
H               -0.5137      2.4595      1.8701
H                0.9180      2.8899      0.8228
H                1.1915      2.2106      2.5157
H               -0.1713     -2.2032     -1.8330
C               -1.4622     -1.4120     -0.2509
H                0.3653     -2.6183     -0.1535
H               -1.7669     -2.0871      0.5934
H               -2.2325     -1.4917     -1.0652
N               -1.3911     -0.0076      0.2236
H               -1.5443      0.0325      1.2294
H               -2.0937      0.5705     -0.2424
20
P25 HEAT OF FORMATION = -40.19552 KCAL = -168.17795 KJ
C               -0.0776     -1.8158     -0.7980
C                0.7498     -0.5804     -0.7437
C                1.9908     -0.4362     -1.1920
C               -0.0463      0.5741     -0.1116
H                2.5461     -1.2557     -1.6660
H                2.5185      0.5244     -1.1114
O               -0.2133      1.6752     -0.7822
O                0.5652      0.8307      1.1797
C                0.5576      2.1793      1.6006
H               -0.4853      2.5010      1.8437
H                0.9777      2.8483      0.8103
H                1.1974      2.1864      2.5185
H               -0.1773     -2.1966     -1.8458
C               -1.4568     -1.4219     -0.2435
H                0.3718     -2.6298     -0.1738
H               -1.7397     -2.0780      0.6222
H               -2.2430     -1.5193     -1.0392
N               -1.3828     -0.0011      0.2047
H               -1.5639      0.0518      1.2090
H               -2.0888      0.5637     -0.2815
