19
P1 HEAT OF FORMATION = -239079.05162 KCAL = -1000306.05096 KJ
O                0.3225     -1.2050     -1.1342
C                1.2138     -0.3081     -1.0551
C                0.5482      1.0295      0.9688
C               -1.2739     -0.7992      0.7473
C               -0.9316      0.6478      1.1494
C               -1.1395     -1.0819     -0.7407
C                1.0146      1.0606     -0.5191
H                1.1877      0.3687      1.5428
H               -0.6729     -1.5102      1.3019
H               -1.5537      1.3381      0.5880
H               -1.5550     -0.3077     -1.3659
H                0.2690      1.5696     -1.1226
O                2.3973     -0.6220     -1.4589
H                0.7008      2.0294      1.3534
H               -2.3110     -0.9960      0.9984
H               -1.1851      0.7761      2.1946
H               -1.5148     -2.0473     -1.0242
H                1.9539      1.5813     -0.6156
H                2.5297     -1.5237     -1.8084
19
P2 HEAT OF FORMATION = -239078.32263 KCAL = -1000303.00086 KJ
O                0.3231     -1.2044     -1.1331
C                1.2145     -0.3068     -1.0543
C                0.5484      1.0313      0.9688
C               -1.2735     -0.7976      0.7472
C               -0.9311      0.6489      1.1508
C               -1.1387     -1.0787     -0.7412
C                1.0127      1.0627     -0.5197
H                1.1888      0.3707      1.5420
H               -0.6721     -1.5091      1.3007
H               -1.5539      1.3396      0.5909
H               -1.5529     -0.3030     -1.3655
H                0.2654      1.5692     -1.1230
O                2.3987     -0.6193     -1.4555
H                0.7009      2.0312      1.3534
H               -2.3105     -0.9947      0.9984
H               -1.1833      0.7759      2.1965
H               -1.5164     -2.0430     -1.0256
H                1.9508      1.5854     -0.6172
H                2.5290     -1.5583     -1.8136
19
P3 HEAT OF FORMATION = -239076.33917 KCAL = -1000294.70205 KJ
O                0.3237     -1.2035     -1.1321
C                1.2154     -0.3051     -1.0537
C                0.5484      1.0331      0.9692
C               -1.2732     -0.7960      0.7475
C               -0.9309      0.6504      1.1518
C               -1.1376     -1.0765     -0.7411
C                1.0118      1.0649     -0.5195
H                1.1892      0.3726      1.5419
H               -0.6720     -1.5077      1.3009
H               -1.5542      1.3411      0.5924
H               -1.5511     -0.3001     -1.3650
H                0.2637      1.5700     -1.1230
O                2.3997     -0.6165     -1.4536
H                0.7007      2.0330      1.3540
H               -2.3103     -0.9932      0.9983
H               -1.1827      0.7768      2.1976
H               -1.5164     -2.0401     -1.0259
H                1.9492      1.5890     -0.6174
H                2.5265     -1.5924     -1.8223
19
P4 HEAT OF FORMATION = -239073.37782 KCAL = -1000282.31179 KJ
O                0.3240     -1.2030     -1.1312
C                1.2160     -0.3041     -1.0531
C                0.5483      1.0347      0.9697
C               -1.2734     -0.7941      0.7480
C               -0.9310      0.6522      1.1526
C               -1.1369     -1.0746     -0.7405
C                1.0110      1.0665     -0.5190
H                1.1891      0.3739      1.5420
H               -0.6724     -1.5058      1.3019
H               -1.5542      1.3431      0.5933
H               -1.5500     -0.2978     -1.3643
H                0.2627      1.5709     -1.1227
O                2.4005     -0.6129     -1.4523
H                0.7010      2.0345      1.3548
H               -2.3107     -0.9911      0.9984
H               -1.1826      0.7785      2.1984
H               -1.5170     -2.0377     -1.0255
H                1.9481      1.5911     -0.6171
H                2.5275     -1.6245     -1.8333
19
P5 HEAT OF FORMATION = -239069.67254 KCAL = -1000266.80892 KJ
O                0.3249     -1.2014     -1.1307
C                1.2176     -0.3023     -1.0520
C                0.5480      1.0373      0.9701
C               -1.2723     -0.7928      0.7479
C               -0.9308      0.6532      1.1537
C               -1.1353     -1.0716     -0.7410
C                1.0104      1.0689     -0.5187
H                1.1897      0.3775      1.5426
H               -0.6706     -1.5047      1.3007
H               -1.5549      1.3441      0.5955
H               -1.5475     -0.2938     -1.3639
H                0.2610      1.5712     -1.1229
O                2.4020     -0.6116     -1.4492
H                0.6999      2.0374      1.3546
H               -2.3093     -0.9909      0.9983
H               -1.1819      0.7783      2.1998
H               -1.5168     -2.0339     -1.0271
H                1.9463      1.5956     -0.6175
H                2.5197     -1.6606     -1.8402
19
P6 HEAT OF FORMATION = -239065.39148 KCAL = -1000248.89697 KJ
O                0.3258     -1.2003     -1.1297
C                1.2188     -0.3004     -1.0514
C                0.5480      1.0392      0.9704
C               -1.2719     -0.7913      0.7481
C               -0.9305      0.6546      1.1546
C               -1.1340     -1.0696     -0.7409
C                1.0098      1.0713     -0.5185
H                1.1903      0.3795      1.5426
H               -0.6703     -1.5032      1.3011
H               -1.5551      1.3455      0.5968
H               -1.5460     -0.2913     -1.3634
H                0.2597      1.5721     -1.1229
O                2.4029     -0.6086     -1.4476
H                0.6995      2.0393      1.3553
H               -2.3089     -0.9893      0.9980
H               -1.1813      0.7794      2.2009
H               -1.5165     -2.0314     -1.0274
H                1.9448      1.5992     -0.6175
H                2.5148     -1.6947     -1.8487
19
P7 HEAT OF FORMATION = -239060.67586 KCAL = -1000229.16681 KJ
O                0.3268     -1.1993     -1.1285
C                1.2201     -0.2987     -1.0509
C                0.5481      1.0408      0.9707
C               -1.2716     -0.7897      0.7483
C               -0.9303      0.6560      1.1555
C               -1.1325     -1.0673     -0.7407
C                1.0088      1.0736     -0.5184
H                1.1908      0.3810      1.5421
H               -0.6705     -1.5019      1.3014
H               -1.5552      1.3472      0.5984
H               -1.5439     -0.2884     -1.3630
H                0.2577      1.5729     -1.1229
O                2.4040     -0.6056     -1.4459
H                0.6997      2.0407      1.3561
H               -2.3088     -0.9876      0.9976
H               -1.1805      0.7802      2.2020
H               -1.5163     -2.0284     -1.0277
H                1.9429      1.6032     -0.6180
H                2.5105     -1.7288     -1.8562
19
P8 HEAT OF FORMATION = -239055.64027 KCAL = -1000208.09791 KJ
O                0.3278     -1.1982     -1.1277
C                1.2216     -0.2970     -1.0501
C                0.5481      1.0429      0.9711
C               -1.2710     -0.7882      0.7485
C               -0.9301      0.6574      1.1564
C               -1.1310     -1.0650     -0.7407
C                1.0082      1.0759     -0.5181
H                1.1912      0.3833      1.5423
H               -0.6699     -1.5004      1.3014
H               -1.5554      1.3486      0.5998
H               -1.5420     -0.2855     -1.3625
H                0.2563      1.5735     -1.1228
O                2.4052     -0.6030     -1.4439
H                0.6993      2.0428      1.3565
H               -2.3083     -0.9863      0.9973
H               -1.1800      0.7809      2.2030
H               -1.5159     -2.0255     -1.0282
H                1.9414      1.6069     -0.6180
H                2.5045     -1.7631     -1.8644
19
P9 HEAT OF FORMATION = -239050.37716 KCAL = -1000186.07708 KJ
O                0.3288     -1.1971     -1.1269
C                1.2230     -0.2953     -1.0495
C                0.5481      1.0449      0.9714
C               -1.2704     -0.7867      0.7485
C               -0.9297      0.6587      1.1574
C               -1.1294     -1.0625     -0.7408
C                1.0073      1.0782     -0.5180
H                1.1919      0.3854      1.5421
H               -0.6693     -1.4991      1.3012
H               -1.5556      1.3500      0.6016
H               -1.5399     -0.2823     -1.3621
H                0.2545      1.5742     -1.1229
O                2.4063     -0.6003     -1.4417
H                0.6991      2.0448      1.3570
H               -2.3077     -0.9851      0.9970
H               -1.1791      0.7814      2.2043
H               -1.5157     -2.0223     -1.0290
H                1.9396      1.6109     -0.6184
H                2.4984     -1.7977     -1.8712
19
P10 HEAT OF FORMATION = -239044.96155 KCAL = -1000163.41820 KJ
O                0.3299     -1.1961     -1.1260
C                1.2247     -0.2935     -1.0488
C                0.5481      1.0469      0.9717
C               -1.2697     -0.7852      0.7486
C               -0.9295      0.6600      1.1583
C               -1.1277     -1.0601     -0.7409
C                1.0065      1.0805     -0.5178
H                1.1924      0.3877      1.5421
H               -0.6686     -1.4978      1.3011
H               -1.5559      1.3514      0.6033
H               -1.5375     -0.2791     -1.3617
H                0.2528      1.5746     -1.1229
O                2.4074     -0.5977     -1.4396
H                0.6988      2.0468      1.3574
H               -2.3070     -0.9839      0.9966
H               -1.1784      0.7820      2.2054
H               -1.5153     -2.0192     -1.0298
H                1.9377      1.6149     -0.6186
H                2.4912     -1.8322     -1.8784
19
P11 HEAT OF FORMATION = -239039.45484 KCAL = -1000140.37813 KJ
O                0.3312     -1.1950     -1.1252
C                1.2265     -0.2918     -1.0481
C                0.5481      1.0489      0.9721
C               -1.2689     -0.7837      0.7486
C               -0.9292      0.6613      1.1593
C               -1.1259     -1.0577     -0.7410
C                1.0058      1.0828     -0.5175
H                1.1930      0.3899      1.5421
H               -0.6678     -1.4964      1.3010
H               -1.5561      1.3528      0.6049
H               -1.5352     -0.2760     -1.3613
H                0.2511      1.5751     -1.1230
O                2.4085     -0.5951     -1.4375
H                0.6984      2.0489      1.3579
H               -2.3063     -0.9828      0.9961
H               -1.1777      0.7826      2.2065
H               -1.5148     -2.0161     -1.0306
H                1.9360      1.6190     -0.6188
H                2.4832     -1.8668     -1.8853
19
P12 HEAT OF FORMATION = -239033.90788 KCAL = -1000117.16965 KJ
O                0.3326     -1.1939     -1.1244
C                1.2285     -0.2898     -1.0475
C                0.5482      1.0509      0.9724
C               -1.2681     -0.7823      0.7486
C               -0.9288      0.6625      1.1602
C               -1.1240     -1.0553     -0.7412
C                1.0050      1.0853     -0.5174
H                1.1937      0.3922      1.5420
H               -0.6670     -1.4951      1.3008
H               -1.5562      1.3541      0.6065
H               -1.5327     -0.2728     -1.3610
H                0.2493      1.5757     -1.1231
O                2.4097     -0.5925     -1.4354
H                0.6981      2.0508      1.3584
H               -2.3055     -0.9816      0.9956
H               -1.1769      0.7830      2.2076
H               -1.5142     -2.0130     -1.0315
H                1.9341      1.6233     -0.6192
H                2.4742     -1.9015     -1.8916
19
P13 HEAT OF FORMATION = -239028.36193 KCAL = -1000093.96543 KJ
O                0.3341     -1.1928     -1.1235
C                1.2306     -0.2879     -1.0468
C                0.5482      1.0530      0.9727
C               -1.2672     -0.7809      0.7485
C               -0.9284      0.6637      1.1611
C               -1.1219     -1.0528     -0.7415
C                1.0043      1.0877     -0.5172
H                1.1944      0.3947      1.5420
H               -0.6660     -1.4938      1.3005
H               -1.5565      1.3554      0.6083
H               -1.5300     -0.2695     -1.3607
H                0.2475      1.5760     -1.1231
O                2.4109     -0.5901     -1.4332
H                0.6978      2.0530      1.3587
H               -2.3046     -0.9807      0.9949
H               -1.1760      0.7833      2.2088
H               -1.5135     -2.0097     -1.0326
H                1.9321      1.6277     -0.6195
H                2.4642     -1.9363     -1.8977
19
P14 HEAT OF FORMATION = -239022.85124 KCAL = -1000070.90874 KJ
O                0.3358     -1.1917     -1.1228
C                1.2329     -0.2858     -1.0461
C                0.5483      1.0551      0.9730
C               -1.2662     -0.7795      0.7484
C               -0.9280      0.6649      1.1620
C               -1.1197     -1.0504     -0.7417
C                1.0036      1.0902     -0.5169
H                1.1951      0.3971      1.5420
H               -0.6650     -1.4926      1.3002
H               -1.5567      1.3566      0.6099
H               -1.5272     -0.2664     -1.3604
H                0.2458      1.5765     -1.1232
O                2.4121     -0.5876     -1.4311
H                0.6973      2.0552      1.3592
H               -2.3036     -0.9797      0.9943
H               -1.1752      0.7837      2.2099
H               -1.5125     -2.0066     -1.0336
H                1.9302      1.6322     -0.6197
H                2.4529     -1.9711     -1.9036
19
P15 HEAT OF FORMATION = -239017.40345 KCAL = -1000048.11519 KJ
O                0.3377     -1.1905     -1.1220
C                1.2354     -0.2837     -1.0454
C                0.5483      1.0573      0.9734
C               -1.2650     -0.7782      0.7482
C               -0.9276      0.6660      1.1629
C               -1.1172     -1.0479     -0.7421
C                1.0029      1.0928     -0.5167
H                1.1958      0.3996      1.5420
H               -0.6636     -1.4913      1.2998
H               -1.5569      1.3577      0.6115
H               -1.5242     -0.2632     -1.3602
H                0.2441      1.5769     -1.1232
O                2.4133     -0.5851     -1.4290
H                0.6968      2.0574      1.3597
H               -2.3025     -0.9790      0.9935
H               -1.1744      0.7839      2.2110
H               -1.5113     -2.0034     -1.0348
H                1.9283      1.6368     -0.6199
H                2.4400     -2.0061     -1.9088
