23
P30 HEAT OF FORMATION = -356579.30378 KCAL = -1491926.76144 KJ
O                0.3810     -0.5574     -2.2931
C                0.8016     -0.6845      0.1680
C                0.6605      1.1433      1.8958
C               -0.9466     -0.8056      1.9754
C               -0.7809      0.7064      2.2168
C               -0.5909     -1.1702      0.5147
C                1.0285      0.7894      0.4355
H                1.3468      0.6418      2.5704
H               -0.2960     -1.3509      2.6517
H               -1.4745      1.2521      1.5837
H               -1.2871     -0.6864     -0.1611
H                0.3908      1.3486     -0.2414
O                1.6638     -1.4120     -0.2751
H                0.7757      2.2103      2.0455
H               -1.9648     -1.1128      2.1824
H               -1.0189      0.9453      3.2473
H               -0.6366     -2.2389      0.3544
H                2.0615      1.0270      0.2204
O               -0.1817     -0.8076     -3.6279
C               -0.2833      0.3910     -4.2560
O               -0.7654      0.4827     -5.3511
H                0.1086      1.1973     -3.6663
H                1.0078     -1.3089     -2.1898
23
P29 HEAT OF FORMATION = -356578.82981 KCAL = -1491924.77835 KJ
O                0.3807     -0.5844     -2.2662
C                0.7945     -0.6934      0.1608
C                0.6538      1.1505      1.8669
C               -0.9430     -0.8055      1.9757
C               -0.7822      0.7086      2.2022
C               -0.5963     -1.1820      0.5163
C                1.0129      0.7865      0.4073
H                1.3482      0.6587      2.5405
H               -0.2857     -1.3423      2.6522
H               -1.4831      1.2455      1.5697
H               -1.2978     -0.7061     -0.1592
H                0.3650      1.3337     -0.2691
O                1.6688     -1.4288     -0.2633
H                0.7641      2.2194      2.0069
H               -1.9586     -1.1150      2.1926
H               -1.0139      0.9556      3.2322
H               -0.6383     -2.2522      0.3659
H                2.0425      1.0289      0.1820
O               -0.1819     -0.7969     -3.6067
C               -0.2620      0.4151     -4.2115
O               -0.7408      0.5365     -5.3060
H                0.1428      1.2039     -3.6054
H                1.0102     -1.3362     -2.1838
23
P28 HEAT OF FORMATION = -356578.20376 KCAL = -1491922.15897 KJ
O                0.3825     -0.6084     -2.2407
C                0.7874     -0.6987      0.1525
C                0.6478      1.1563      1.8417
C               -0.9399     -0.8058      1.9736
C               -0.7830      0.7096      2.1899
C               -0.6023     -1.1901      0.5146
C                0.9978      0.7862      0.3819
H                1.3498      0.6717      2.5127
H               -0.2761     -1.3364      2.6487
H               -1.4911      1.2401      1.5597
H               -1.3085     -0.7195     -0.1592
H                0.3404      1.3237     -0.2925
O                1.6742     -1.4413     -0.2517
H                0.7539      2.2265      1.9751
H               -1.9529     -1.1174      2.1997
H               -1.0083      0.9617      3.2203
H               -0.6414     -2.2612      0.3710
H                2.0242      1.0332      0.1472
O               -0.1850     -0.7885     -3.5830
C               -0.2418      0.4334     -4.1697
O               -0.7209      0.5804     -5.2619
H                0.1806      1.2059     -3.5531
H                1.0126     -1.3615     -2.1767
23
P27 HEAT OF FORMATION = -356577.42479 KCAL = -1491918.89978 KJ
O                0.3856     -0.6297     -2.2157
C                0.7801     -0.7020      0.1436
C                0.6423      1.1612      1.8189
C               -0.9371     -0.8065      1.9703
C               -0.7833      0.7097      2.1793
C               -0.6089     -1.1958      0.5110
C                0.9830      0.7873      0.3584
H                1.3517      0.6824      2.4864
H               -0.2668     -1.3326      2.6427
H               -1.4982      1.2351      1.5525
H               -1.3194     -0.7285     -0.1601
H                0.3162      1.3164     -0.3129
O                1.6797     -1.4512     -0.2400
H                0.7445      2.2324      1.9475
H               -1.9475     -1.1201      2.2051
H               -1.0020      0.9650      3.2102
H               -0.6458     -2.2675      0.3720
H                2.0061      1.0389      0.1145
O               -0.1897     -0.7812     -3.5575
C               -0.2224      0.4480     -4.1304
O               -0.7040      0.6176     -5.2191
H                0.2206      1.2052     -3.5077
H                1.0155     -1.3843     -2.1690
23
P26 HEAT OF FORMATION = -356576.49233 KCAL = -1491914.99836 KJ
O                0.3917     -0.6462     -2.1918
C                0.7729     -0.7025      0.1341
C                0.6380      1.1645      1.7998
C               -0.9351     -0.8074      1.9651
C               -0.7829      0.7087      2.1710
C               -0.6161     -1.1984      0.5047
C                0.9691      0.7904      0.3376
H                1.3542      0.6890      2.4624
H               -0.2596     -1.3316      2.6336
H               -1.5040      1.2319      1.5493
H               -1.3302     -0.7320     -0.1628
H                0.2933      1.3135     -0.3288
O                1.6854     -1.4579     -0.2277
H                0.7372      2.2362      1.9267
H               -1.9434     -1.1224      2.2071
H               -0.9947      0.9647      3.2033
H               -0.6519     -2.2703      0.3676
H                1.9889      1.0464      0.0854
O               -0.1945     -0.7759     -3.5303
C               -0.2051      0.4570     -4.0956
O               -0.6912      0.6435     -5.1804
H                0.2586      1.2019     -3.4712
H                1.0195     -1.4031     -2.1593
23
P25 HEAT OF FORMATION = -356575.40631 KCAL = -1491910.45446 KJ
O                0.3981     -0.6615     -2.1677
C                0.7661     -0.7027      0.1246
C                0.6338      1.1675      1.7820
C               -0.9335     -0.8084      1.9591
C               -0.7827      0.7077      2.1625
C               -0.6231     -1.2002      0.4976
C                0.9566      0.7934      0.3184
H                1.3560      0.6950      2.4401
H               -0.2528     -1.3310      2.6237
H               -1.5093      1.2285      1.5453
H               -1.3403     -0.7340     -0.1663
H                0.2732      1.3112     -0.3437
O                1.6911     -1.4638     -0.2158
H                0.7303      2.2397      1.9074
H               -1.9397     -1.1249      2.2081
H               -0.9886      0.9640      3.1959
H               -0.6583     -2.2723      0.3615
H                1.9736      1.0531      0.0591
O               -0.2006     -0.7705     -3.5017
C               -0.1897      0.4647     -4.0612
O               -0.6806      0.6663     -5.1421
H                0.2950      1.1979     -3.4373
H                1.0253     -1.4195     -2.1497
23
P24 HEAT OF FORMATION = -356574.16586 KCAL = -1491905.26440 KJ
O                0.4067     -0.6739     -2.1446
C                0.7589     -0.7011      0.1145
C                0.6301      1.1695      1.7662
C               -0.9321     -0.8097      1.9525
C               -0.7820      0.7058      2.1559
C               -0.6308     -1.2004      0.4893
C                0.9438      0.7977      0.3005
H                1.3583      0.6986      2.4187
H               -0.2466     -1.3322      2.6122
H               -1.5140      1.2260      1.5445
H               -1.3509     -0.7334     -0.1703
H                0.2525      1.3116     -0.3561
O                1.6965     -1.4675     -0.2031
H                0.7244      2.2419      1.8919
H               -1.9364     -1.1274      2.2078
H               -0.9812      0.9609      3.1909
H               -0.6656     -2.2724      0.3529
H                1.9579      1.0613      0.0340
O               -0.2064     -0.7661     -3.4724
C               -0.1744      0.4695     -4.0301
O               -0.6733      0.6837     -5.1058
H                0.3338      1.1917     -3.4105
H                1.0309     -1.4345     -2.1388
23
P23 HEAT OF FORMATION = -356572.77051 KCAL = -1491899.42626 KJ
O                0.4162     -0.6846     -2.1211
C                0.7528     -0.6993      0.1044
C                0.6265      1.1712      1.7515
C               -0.9314     -0.8109      1.9448
C               -0.7817      0.7041      2.1485
C               -0.6376     -1.2003      0.4803
C                0.9326      0.8020      0.2840
H                1.3598      0.7013      2.3991
H               -0.2418     -1.3334      2.6003
H               -1.5182      1.2237      1.5420
H               -1.3601     -0.7324     -0.1756
H                0.2347      1.3126     -0.3677
O                1.7027     -1.4705     -0.1903
H                0.7191      2.2438      1.8780
H               -1.9339     -1.1297      2.2054
H               -0.9756      0.9579      3.1849
H               -0.6720     -2.2722      0.3434
H                1.9441      1.0691      0.0116
O               -0.2148     -0.7610     -3.4407
C               -0.1613      0.4733     -3.9992
O               -0.6705      0.6991     -5.0686
H                0.3731      1.1842     -3.3868
H                1.0374     -1.4478     -2.1284
23
P22 HEAT OF FORMATION = -356571.21947 KCAL = -1491892.93673 KJ
O                0.4260     -0.6939     -2.0981
C                0.7459     -0.6969      0.0939
C                0.6231      1.1727      1.7375
C               -0.9303     -0.8125      1.9374
C               -0.7810      0.7018      2.1424
C               -0.6450     -1.1996      0.4711
C                0.9208      0.8068      0.2680
H                1.3618      0.7034      2.3794
H               -0.2363     -1.3355      2.5877
H               -1.5223      1.2213      1.5417
H               -1.3702     -0.7301     -0.1804
H                0.2161      1.3145     -0.3782
O                1.7080     -1.4726     -0.1773
H                0.7138      2.2452      1.8653
H               -1.9310     -1.1326      2.2037
H               -0.9689      0.9537      3.1804
H               -0.6793     -2.2712      0.3328
H                1.9297      1.0775     -0.0106
O               -0.2231     -0.7557     -3.4088
C               -0.1475      0.4759     -3.9703
O               -0.6665      0.7121     -5.0337
H                0.4130      1.1756     -3.3668
H                1.0432     -1.4599     -2.1172
23
P21 HEAT OF FORMATION = -356569.51206 KCAL = -1491885.79293 KJ
O                0.4364     -0.7019     -2.0755
C                0.7391     -0.6940      0.0831
C                0.6199      1.1737      1.7245
C               -0.9295     -0.8140      1.9296
C               -0.7802      0.6993      2.1367
C               -0.6524     -1.1983      0.4615
C                0.9096      0.8118      0.2528
H                1.3637      0.7046      2.3606
H               -0.2313     -1.3380      2.5746
H               -1.5261      1.2194      1.5419
H               -1.3803     -0.7273     -0.1857
H                0.1985      1.3174     -0.3878
O                1.7129     -1.4738     -0.1643
H                0.7093      2.2462      1.8542
H               -1.9284     -1.1354      2.2013
H               -0.9621      0.9488      3.1763
H               -0.6866     -2.2697      0.3217
H                1.9159      1.0858     -0.0315
O               -0.2314     -0.7503     -3.3765
C               -0.1345      0.4774     -3.9426
O               -0.6634      0.7228     -5.0000
H                0.4513      1.1663     -3.3491
H                1.0495     -1.4709     -2.1056
23
P20 HEAT OF FORMATION = -356567.64795 KCAL = -1491877.99349 KJ
O                0.4476     -0.7087     -2.0532
C                0.7322     -0.6903      0.0718
C                0.6171      1.1744      1.7125
C               -0.9289     -0.8157      1.9215
C               -0.7792      0.6966      2.1316
C               -0.6600     -1.1963      0.4515
C                0.8984      0.8175      0.2385
H                1.3658      0.7047      2.3423
H               -0.2268     -1.3413      2.5609
H               -1.5295      1.2177      1.5432
H               -1.3903     -0.7232     -0.1912
H                0.1811      1.3212     -0.3962
O                1.7176     -1.4739     -0.1512
H                0.7053      2.2467      1.8450
H               -1.9261     -1.1381      2.1981
H               -0.9551      0.9429      3.1731
H               -0.6943     -2.2674      0.3093
H                1.9021      1.0948     -0.0514
O               -0.2396     -0.7450     -3.3436
C               -0.1219      0.4776     -3.9165
O               -0.6618      0.7311     -4.9674
H                0.4899      1.1557     -3.3351
H                1.0564     -1.4807     -2.0937
23
P19 HEAT OF FORMATION = -356565.62708 KCAL = -1491869.53817 KJ
O                0.4602     -0.7145     -2.0309
C                0.7264     -0.6864      0.0606
C                0.6144      1.1748      1.7017
C               -0.9288     -0.8173      1.9122
C               -0.7787      0.6939      2.1258
C               -0.6668     -1.1938      0.4404
C                0.8892      0.8230      0.2257
H                1.3671      0.7040      2.3259
H               -0.2232     -1.3446      2.5464
H               -1.5324      1.2162      1.5428
H               -1.3989     -0.7183     -0.1983
H                0.1672      1.3260     -0.4042
O                1.7228     -1.4736     -0.1376
H                0.7017      2.2468      1.8373
H               -1.9245     -1.1408      2.1930
H               -0.9499      0.9371      3.1689
H               -0.7014     -2.2644      0.2955
H                1.8910      1.1030     -0.0682
O               -0.2492     -0.7395     -3.3086
C               -0.1122      0.4768     -3.8901
O               -0.6644      0.7374     -4.9337
H                0.5262      1.1439     -3.3230
H                1.0641     -1.4898     -2.0816
23
P18 HEAT OF FORMATION = -356563.45030 KCAL = -1491860.43052 KJ
O                0.4755     -0.7179     -2.0089
C                0.7215     -0.6818      0.0491
C                0.6124      1.1742      1.6927
C               -0.9298     -0.8185      1.9016
C               -0.7783      0.6913      2.1200
C               -0.6731     -1.1903      0.4281
C                0.8817      0.8290      0.2145
H                1.3679      0.7009      2.3115
H               -0.2223     -1.3486      2.5312
H               -1.5343      1.2159      1.5419
H               -1.4064     -0.7122     -0.2071
H                0.1559      1.3324     -0.4104
O                1.7286     -1.4724     -0.1229
H                0.7001      2.2457      1.8327
H               -1.9248     -1.1425      2.1848
H               -0.9456      0.9307      3.1646
H               -0.7080     -2.2605      0.2802
H                1.8819      1.1112     -0.0821
O               -0.2572     -0.7351     -3.2726
C               -0.1055      0.4739     -3.8652
O               -0.6742      0.7395     -4.8996
H                0.5596      1.1314     -3.3159
H                1.0744     -1.4964     -2.0681
23
P17 HEAT OF FORMATION = -356561.11982 KCAL = -1491850.67981 KJ
O                0.4945     -0.7214     -1.9869
C                0.7173     -0.6777      0.0378
C                0.6104      1.1738      1.6834
C               -0.9311     -0.8195      1.8900
C               -0.7783      0.6888      2.1131
C               -0.6792     -1.1865      0.4150
C                0.8749      0.8345      0.2035
H                1.3684      0.6981      2.2974
H               -0.2216     -1.3524      2.5150
H               -1.5364      1.2157      1.5396
H               -1.4130     -0.7055     -0.2172
H                0.1461      1.3383     -0.4173
O                1.7343     -1.4720     -0.1065
H                0.6980      2.2448      1.8274
H               -1.9253     -1.1441      2.1755
H               -0.9423      0.9247      3.1591
H               -0.7149     -2.2562      0.2639
H                1.8740      1.1187     -0.0954
O               -0.2649     -0.7301     -3.2340
C               -0.1007      0.4714     -3.8382
O               -0.6894      0.7432     -4.8606
H                0.5930      1.1178     -3.3097
H                1.0864     -1.5045     -2.0549
23
P16 HEAT OF FORMATION = -356558.63977 KCAL = -1491840.30328 KJ
O                0.5139     -0.7239     -1.9655
C                0.7133     -0.6730      0.0257
C                0.6088      1.1729      1.6752
C               -0.9330     -0.8202      1.8779
C               -0.7782      0.6865      2.1065
C               -0.6851     -1.1820      0.4014
C                0.8694      0.8402      0.1936
H                1.3686      0.6939      2.2843
H               -0.2221     -1.3564      2.4983
H               -1.5377      1.2164      1.5376
H               -1.4193     -0.6981     -0.2283
H                0.1380      1.3453     -0.4234
O                1.7396     -1.4709     -0.0912
H                0.6973      2.2432      1.8240
H               -1.9267     -1.1451      2.1650
H               -0.9394      0.9179      3.1539
H               -0.7214     -2.2511      0.2468
H                1.8675      1.1259     -0.1068
O               -0.2712     -0.7263     -3.1957
C               -0.0978      0.4676     -3.8118
O               -0.7057      0.7433     -4.8229
H                0.6211      1.1048     -3.3043
H                1.1000     -1.5108     -2.0403
23
P15 HEAT OF FORMATION = -356556.01609 KCAL = -1491829.32580 KJ
O                0.5370     -0.7227     -1.9440
C                0.7102     -0.6674      0.0138
C                0.6078      1.1712      1.6690
C               -0.9355     -0.8210      1.8640
C               -0.7782      0.6836      2.1002
C               -0.6908     -1.1758      0.3858
C                0.8655      0.8465      0.1856
H                1.3687      0.6878      2.2732
H               -0.2236     -1.3616      2.4795
H               -1.5384      1.2177      1.5362
H               -1.4245     -0.6876     -0.2413
H                0.1328      1.3541     -0.4278
O                1.7450     -1.4690     -0.0738
H                0.6976      2.2405      1.8239
H               -1.9290     -1.1461      2.1518
H               -0.9368      0.9095      3.1493
H               -0.7288     -2.2442      0.2265
H                1.8632      1.1335     -0.1150
O               -0.2794     -0.7218     -3.1527
C               -0.0979      0.4609     -3.7872
O               -0.7263      0.7363     -4.7869
H                0.6464      1.0906     -3.3054
H                1.1150     -1.5149     -2.0246
23
P14 HEAT OF FORMATION = -356553.25799 KCAL = -1491817.78594 KJ
O                0.5616     -0.7196     -1.9229
C                0.7075     -0.6609      0.0013
C                0.6077      1.1687      1.6645
C               -0.9386     -0.8216      1.8491
C               -0.7779      0.6807      2.0941
C               -0.6966     -1.1684      0.3691
C                0.8630      0.8534      0.1791
H                1.3689      0.6796      2.2635
H               -0.2262     -1.3673      2.4595
H               -1.5381      1.2196      1.5347
H               -1.4294     -0.6754     -0.2555
H                0.1297      1.3648     -0.4307
O                1.7496     -1.4666     -0.0561
H                0.6996      2.2368      1.8267
H               -1.9321     -1.1466      2.1368
H               -0.9348      0.9003      3.1448
H               -0.7364     -2.2360      0.2042
H                1.8607      1.1411     -0.1209
O               -0.2867     -0.7182     -3.1086
C               -0.1006      0.4523     -3.7638
O               -0.7494      0.7235     -4.7525
H                0.6662      1.0768     -3.3092
H                1.1321     -1.5169     -2.0071
23
P13 HEAT OF FORMATION = -356550.37820 KCAL = -1491805.73692 KJ
O                0.5887     -0.7150     -1.9020
C                0.7066     -0.6538     -0.0117
C                0.6077      1.1660      1.6611
C               -0.9422     -0.8220      1.8325
C               -0.7784      0.6779      2.0869
C               -0.7009     -1.1601      0.3508
C                0.8626      0.8606      0.1739
H                1.3680      0.6703      2.2557
H               -0.2304     -1.3729      2.4385
H               -1.5374      1.2219      1.5308
H               -1.4322     -0.6626     -0.2719
H                0.1300      1.3767     -0.4329
O                1.7550     -1.4639     -0.0384
H                0.7021      2.2326      1.8312
H               -1.9362     -1.1470      2.1186
H               -0.9354      0.8912      3.1388
H               -0.7422     -2.2268      0.1805
H                1.8609      1.1486     -0.1237
O               -0.2947     -0.7143     -3.0608
C               -0.1063      0.4421     -3.7395
O               -0.7817      0.7106     -4.7120
H                0.6870      1.0588     -3.3187
H                1.1494     -1.5190     -1.9877
23
P12 HEAT OF FORMATION = -356547.39181 KCAL = -1491793.24185 KJ
O                0.6203     -0.7086     -1.8817
C                0.7061     -0.6446     -0.0254
C                0.6087      1.1623      1.6597
C               -0.9469     -0.8220      1.8132
C               -0.7784      0.6745      2.0805
C               -0.7058     -1.1484      0.3293
C                0.8637      0.8695      0.1706
H                1.3676      0.6581      2.2489
H               -0.2363     -1.3806      2.4134
H               -1.5358      1.2258      1.5292
H               -1.4347     -0.6438     -0.2907
H                0.1328      1.3920     -0.4332
O                1.7591     -1.4599     -0.0181
H                0.7064      2.2270      1.8400
H               -1.9417     -1.1465      2.0966
H               -0.9351      0.8790      3.1342
H               -0.7501     -2.2137      0.1510
H                1.8630      1.1575     -0.1233
O               -0.2989     -0.7144     -3.0114
C               -0.1158      0.4274     -3.7156
O               -0.8218      0.6896     -4.6689
H                0.7019      1.0389     -3.3330
H                1.1721     -1.5191     -1.9652
23
P11 HEAT OF FORMATION = -356544.31883 KCAL = -1491780.38451 KJ
O                0.6527     -0.7039     -1.8625
C                0.7026     -0.6349     -0.0406
C                0.6111      1.1577      1.6576
C               -0.9515     -0.8216      1.7936
C               -0.7765      0.6708      2.0757
C               -0.7142     -1.1344      0.3067
C                0.8632      0.8787      0.1658
H                1.3695      0.6441      2.2391
H               -0.2409     -1.3893      2.3853
H               -1.5330      1.2309      1.5319
H               -1.4408     -0.6207     -0.3088
H                0.1333      1.4085     -0.4331
O                1.7587     -1.4559      0.0028
H                0.7132      2.2202      1.8489
H               -1.9469     -1.1452      2.0763
H               -0.9304      0.8650      3.1319
H               -0.7634     -2.1979      0.1187
H                1.8634      1.1660     -0.1260
O               -0.2930     -0.7217     -2.9689
C               -0.1259      0.4113     -3.6907
O               -0.8547      0.6608     -4.6312
H                0.7010      1.0282     -3.3347
H                1.2023     -1.5166     -1.9379
23
P10 HEAT OF FORMATION = -356541.17714 KCAL = -1491767.23968 KJ
O                0.6855     -0.6978     -1.8438
C                0.6985     -0.6238     -0.0571
C                0.6144      1.1526      1.6563
C               -0.9560     -0.8210      1.7730
C               -0.7737      0.6666      2.0716
C               -0.7232     -1.1186      0.2828
C                0.8632      0.8887      0.1616
H                1.3720      0.6282      2.2290
H               -0.2455     -1.3986      2.3550
H               -1.5293      1.2365      1.5364
H               -1.4477     -0.5951     -0.3270
H                0.1350      1.4271     -0.4319
O                1.7561     -1.4510      0.0231
H                0.7216      2.2123      1.8598
H               -1.9519     -1.1437      2.0550
H               -0.9243      0.8492      3.1304
H               -0.7779     -2.1800      0.0843
H                1.8644      1.1749     -0.1278
O               -0.2847     -0.7317     -2.9273
C               -0.1373      0.3928     -3.6662
O               -0.8866      0.6250     -4.5961
H                0.6933      1.0194     -3.3338
H                1.2342     -1.5122     -1.9072
23
P09 HEAT OF FORMATION = -356537.98727 KCAL = -1491753.89330 KJ
O                0.7159     -0.6895     -1.8259
C                0.6914     -0.6097     -0.0752
C                0.6183      1.1468      1.6565
C               -0.9592     -0.8215      1.7533
C               -0.7693      0.6607      2.0713
C               -0.7350     -1.0999      0.2586
C                0.8605      0.9012      0.1581
H                1.3764      0.6107      2.2173
H               -0.2467     -1.4098      2.3217
H               -1.5251      1.2410      1.5478
H               -1.4586     -0.5644     -0.3418
H                0.1329      1.4494     -0.4277
O                1.7489     -1.4434      0.0422
H                0.7307      2.2032      1.8741
H               -1.9547     -1.1443      2.0370
H               -0.9142      0.8293      3.1332
H               -0.7964     -2.1583      0.0468
H                1.8622      1.1870     -0.1302
O               -0.2752     -0.7428     -2.8886
C               -0.1450      0.3700     -3.6478
O               -0.9133      0.5832     -4.5677
H                0.6900      1.0055     -3.3409
H                1.2656     -1.5044     -1.8722
23
P08 HEAT OF FORMATION = -356534.77098 KCAL = -1491740.43635 KJ
O                0.7444     -0.6786     -1.8084
C                0.6819     -0.5924     -0.0946
C                0.6230      1.1403      1.6588
C               -0.9616     -0.8226      1.7338
C               -0.7633      0.6528      2.0741
C               -0.7490     -1.0774      0.2337
C                0.8567      0.9162      0.1561
H                1.3825      0.5913      2.2046
H               -0.2458     -1.4229      2.2850
H               -1.5205      1.2446      1.5654
H               -1.4722     -0.5273     -0.3542
H                0.1292      1.4755     -0.4198
O                1.7374     -1.4337      0.0588
H                0.7410      2.1926      1.8926
H               -1.9560     -1.1466      2.0202
H               -0.9007      0.8047      3.1397
H               -0.8188     -2.1319      0.0053
H                1.8588      1.2016     -0.1315
O               -0.2641     -0.7561     -2.8520
C               -0.1509      0.3418     -3.6348
O               -0.9371      0.5319     -4.5457
H                0.6870      0.9876     -3.3550
H                1.2983     -1.4915     -1.8322
23
P07 HEAT OF FORMATION = -356531.54359 KCAL = -1491726.93293 KJ
O                0.7671     -0.6684     -1.7913
C                0.6697     -0.5744     -0.1152
C                0.6277      1.1339      1.6602
C               -0.9623     -0.8242      1.7169
C               -0.7563      0.6444      2.0788
C               -0.7643     -1.0555      0.2115
C                0.8497      0.9317      0.1532
H                1.3898      0.5723      2.1893
H               -0.2415     -1.4353      2.2493
H               -1.5158      1.2467      1.5862
H               -1.4889     -0.4922     -0.3622
H                0.1212      1.5018     -0.4115
O                1.7231     -1.4225      0.0706
H                0.7515      2.1818      1.9102
H               -1.9545     -1.1503      2.0084
H               -0.8843      0.7796      3.1477
H               -0.8424     -2.1061     -0.0326
H                1.8515      1.2171     -0.1359
O               -0.2536     -0.7684     -2.8199
C               -0.1520      0.3142     -3.6252
O               -0.9492      0.4827     -4.5319
H                0.6871      0.9689     -3.3668
H                1.3266     -1.4779     -1.7899
23
P06 HEAT OF FORMATION = -356528.31279 KCAL = -1491713.41531 KJ
O                0.7864     -0.6552     -1.7745
C                0.6551     -0.5530     -0.1370
C                0.6335      1.1263      1.6638
C               -0.9625     -0.8265      1.7004
C               -0.7475      0.6339      2.0868
C               -0.7818     -1.0304      0.1894
C                0.8418      0.9496      0.1521
H                1.3988      0.5512      2.1731
H               -0.2361     -1.4496      2.2104
H               -1.5100      1.2480      1.6134
H               -1.5081     -0.4515     -0.3667
H                0.1120      1.5319     -0.3988
O                1.7053     -1.4087      0.0787
H                0.7638      2.1690      1.9320
H               -1.9521     -1.1552      1.9976
H               -0.8641      0.7499      3.1593
H               -0.8693     -2.0758     -0.0732
H                1.8430      1.2353     -0.1391
O               -0.2430     -0.7816     -2.7904
C               -0.1507      0.2814     -3.6221
O               -0.9556      0.4215     -4.5279
H                0.6869      0.9477     -3.3850
H                1.3542     -1.4582     -1.7425
23
P05 HEAT OF FORMATION = -356525.07208 KCAL = -1491699.85617 KJ
O                0.8025     -0.6435     -1.7576
C                0.6385     -0.5308     -0.1596
C                0.6394      1.1190      1.6661
C               -0.9615     -0.8293      1.6848
C               -0.7375      0.6226      2.0955
C               -0.8005     -1.0053      0.1686
C                0.8318      0.9680      0.1499
H                1.4085      0.5311      2.1542
H               -0.2286     -1.4634      2.1708
H               -1.5040      1.2477      1.6430
H               -1.5294     -0.4120     -0.3687
H                0.1000      1.5622     -0.3861
O                1.6852     -1.3934      0.0860
H                0.7760      2.1561      1.9522
H               -1.9477     -1.1614      1.9893
H               -0.8411      0.7188      3.1714
H               -0.8972     -2.0453     -0.1123
H                1.8319      1.2546     -0.1448
O               -0.2320     -0.7946     -2.7638
C               -0.1461      0.2492     -3.6199
O               -0.9572      0.3635     -4.5250
H                0.6906      0.9248     -3.4025
H                1.3783     -1.4387     -1.6917
23
P04 HEAT OF FORMATION = -356521.79408 KCAL = -1491686.14103 KJ
O                0.8101     -0.6414     -1.7403
C                0.6209     -0.5129     -0.1822
C                0.6436      1.1143      1.6625
C               -0.9578     -0.8325      1.6742
C               -0.7276      0.6128      2.1020
C               -0.8179     -0.9869      0.1539
C                0.8185      0.9832      0.1428
H                1.4178      0.5175      2.1310
H               -0.2162     -1.4730      2.1379
H               -1.4995      1.2448      1.6688
H               -1.5516     -0.3843     -0.3667
H                0.0826      1.5851     -0.3792
O                1.6654     -1.3808      0.0899
H                0.7851      2.1470      1.9620
H               -1.9392     -1.1695      1.9889
H               -0.8170      0.6938      3.1805
H               -0.9212     -2.0227     -0.1400
H                1.8163      1.2722     -0.1582
O               -0.2258     -0.8018     -2.7425
C               -0.1350      0.2289     -3.6135
O               -0.9418      0.3271     -4.5255
H                0.7003      0.9095     -3.4018
H                1.3901     -1.4305     -1.6445
23
P03 HEAT OF FORMATION = -356518.42285 KCAL = -1491672.03580 KJ
O                0.8160     -0.6346     -1.7232
C                0.6008     -0.4925     -0.2058
C                0.6504      1.1075      1.6608
C               -0.9553     -0.8353      1.6629
C               -0.7148      0.6014      2.1115
C               -0.8378     -0.9656      0.1390
C                0.8046      0.9999      0.1374
H                1.4297      0.5002      2.1062
H               -0.2072     -1.4852      2.1022
H               -1.4918      1.2429      1.7020
H               -1.5757     -0.3519     -0.3627
H                0.0648      1.6115     -0.3679
O                1.6434     -1.3651      0.0917
H                0.7986      2.1346      1.9757
H               -1.9326     -1.1752      1.9872
H               -0.7871      0.6635      3.1925
H               -0.9496     -1.9962     -0.1697
H                1.7999      1.2907     -0.1707
O               -0.2174     -0.8120     -2.7241
C               -0.1240      0.2031     -3.6127
O               -0.9149      0.2695     -4.5423
H                0.6965      0.9019     -3.3970
H                1.4036     -1.4131     -1.5930
23
P02 HEAT OF FORMATION = -356514.87669 KCAL = -1491657.19870 KJ
O                0.8113     -0.6450     -1.7045
C                0.5814     -0.4833     -0.2274
C                0.6514      1.1070      1.6483
C               -0.9476     -0.8399      1.6603
C               -0.7054      0.5941      2.1144
C               -0.8536     -0.9595      0.1344
C                0.7858      1.0085      0.1229
H                1.4383      0.4980      2.0774
H               -0.1886     -1.4891      2.0808
H               -1.4903      1.2357      1.7201
H               -1.5992     -0.3436     -0.3530
H                0.0392      1.6218     -0.3708
O                1.6256     -1.3564      0.0930
H                0.8013      2.1324      1.9678
H               -1.9177     -1.1865      1.9985
H               -0.7627      0.6494      3.1968
H               -0.9695     -1.9883     -0.1791
H                1.7770      1.3028     -0.1959
O               -0.2198     -0.8075     -2.7091
C               -0.1019      0.2020     -3.6010
O               -0.8865      0.2773     -4.5364
H                0.7303      0.8879     -3.3840
H                1.4013     -1.4179     -1.5536
23
P01 HEAT OF FORMATION = -356511.04106 KCAL = -1491641.15044 KJ
O                0.8056     -0.6550     -1.6861
C                0.5668     -0.4774     -0.2486
C                0.6512      1.1066      1.6359
C               -0.9408     -0.8437      1.6576
C               -0.6994      0.5893      2.1133
C               -0.8634     -0.9586      0.1309
C                0.7712      1.0137      0.1095
H                1.4431      0.4972      2.0546
H               -0.1739     -1.4908      2.0667
H               -1.4901      1.2298      1.7283
H               -1.6171     -0.3451     -0.3472
H                0.0199      1.6292     -0.3753
O                1.6147     -1.3501      0.0895
H                0.8023      2.1311      1.9578
H               -1.9056     -1.1955      2.0058
H               -0.7466      0.6415      3.1965
H               -0.9793     -1.9875     -0.1835
H                1.7595      1.3110     -0.2165
O               -0.2286     -0.7963     -2.6896
C               -0.0853      0.2053     -3.5864
O               -0.8729      0.3000     -4.5186
H                0.7696      0.8668     -3.3771
H                1.3992     -1.4215     -1.5177
