9
P1 HEAT OF FORMATION = -142352.69004 KCAL = -595603.23773 KJ
C               -0.3908      0.0306      0.1623
C                1.0623      0.0075     -0.1227
H                1.2978      0.7905     -0.8405
H                1.3510     -0.9460     -0.5499
H                1.6093      0.1891      0.7883
O               -1.3038     -0.3344     -0.6650
O               -0.7891      0.4528      1.2959
H               -1.7500      0.4813      1.4842
H               -1.0868     -0.6715     -1.5526
9
P2 HEAT OF FORMATION = -142352.26463 KCAL = -595601.45780 KJ
C               -0.3929      0.0304      0.1633
C                1.0608      0.0085     -0.1205
H                1.2973      0.7955     -0.8338
H                1.3493     -0.9428     -0.5525
H                1.6073      0.1852      0.7917
O               -1.3033     -0.3347     -0.6600
O               -0.7894      0.4561      1.2975
H               -1.7500      0.4852      1.4863
H               -1.0790     -0.6833     -1.5719
9
P3 HEAT OF FORMATION = -142351.07480 KCAL = -595596.47956 KJ
C               -0.3954      0.0304      0.1637
C                1.0591      0.0092     -0.1186
H                1.2965      0.8007     -0.8265
H                1.3488     -0.9395     -0.5552
H                1.6042      0.1808      0.7954
O               -1.3032     -0.3356     -0.6552
O               -0.7893      0.4596      1.2988
H               -1.7493      0.4897      1.4890
H               -1.0715     -0.6952     -1.5914
9
P4 HEAT OF FORMATION = -142349.24712 KCAL = -595588.83255 KJ
C               -0.3978      0.0302      0.1640
C                1.0575      0.0100     -0.1165
H                1.2959      0.8058     -0.8194
H                1.3481     -0.9364     -0.5574
H                1.6013      0.1770      0.7991
O               -1.3032     -0.3361     -0.6506
O               -0.7890      0.4628      1.3001
H               -1.7486      0.4938      1.4918
H               -1.0641     -0.7070     -1.6111
9
P5 HEAT OF FORMATION = -142346.88681 KCAL = -595578.95702 KJ
C               -0.4002      0.0299      0.1643
C                1.0558      0.0107     -0.1146
H                1.2954      0.8112     -0.8116
H                1.3472     -0.9330     -0.5603
H                1.5984      0.1725      0.8027
O               -1.3032     -0.3372     -0.6456
O               -0.7889      0.4664      1.3013
H               -1.7479      0.4984      1.4945
H               -1.0566     -0.7190     -1.6305
9
P6 HEAT OF FORMATION = -142344.08332 KCAL = -595567.22721 KJ
C               -0.4024      0.0300      0.1649
C                1.0543      0.0116     -0.1126
H                1.2949      0.8155     -0.8051
H                1.3463     -0.9300     -0.5620
H                1.5956      0.1692      0.8061
O               -1.3029     -0.3376     -0.6406
O               -0.7889      0.4695      1.3027
H               -1.7475      0.5018      1.4968
H               -1.0494     -0.7301     -1.6502
9
P7 HEAT OF FORMATION = -142340.91149 KCAL = -595553.95630 KJ
C               -0.4048      0.0298      0.1654
C                1.0527      0.0124     -0.1105
H                1.2940      0.8205     -0.7980
H                1.3455     -0.9267     -0.5645
H                1.5929      0.1653      0.8096
O               -1.3027     -0.3382     -0.6358
O               -0.7888      0.4727      1.3042
H               -1.7470      0.5061      1.4994
H               -1.0418     -0.7418     -1.6697
9
P8 HEAT OF FORMATION = -142337.43487 KCAL = -595539.41014 KJ
C               -0.4072      0.0298      0.1658
C                1.0510      0.0134     -0.1085
H                1.2938      0.8253     -0.7908
H                1.3442     -0.9230     -0.5674
H                1.5899      0.1609      0.8131
O               -1.3027     -0.3393     -0.6307
O               -0.7887      0.4762      1.3055
H               -1.7465      0.5102      1.5020
H               -1.0338     -0.7536     -1.6889
9
P9 HEAT OF FORMATION = -142333.70904 KCAL = -595523.82126 KJ
C               -0.4096      0.0297      0.1664
C                1.0493      0.0142     -0.1066
H                1.2928      0.8297     -0.7843
H                1.3433     -0.9200     -0.5693
H                1.5873      0.1575      0.8163
O               -1.3025     -0.3395     -0.6260
O               -0.7888      0.4792      1.3071
H               -1.7461      0.5141      1.5048
H               -1.0258     -0.7648     -1.7085
9
P10 HEAT OF FORMATION = -142329.77993 KCAL = -595507.38190 KJ
C               -0.4120      0.0295      0.1670
C                1.0477      0.0150     -0.1046
H                1.2919      0.8340     -0.7778
H                1.3424     -0.9171     -0.5710
H                1.5846      0.1542      0.8196
O               -1.3023     -0.3400     -0.6214
O               -0.7887      0.4821      1.3088
H               -1.7456      0.5181      1.5077
H               -1.0179     -0.7758     -1.7283
9
P11 HEAT OF FORMATION = -142325.68684 KCAL = -595490.25642 KJ
C               -0.4145      0.0294      0.1675
C                1.0461      0.0158     -0.1025
H                1.2910      0.8378     -0.7718
H                1.3415     -0.9143     -0.5721
H                1.5818      0.1516      0.8228
O               -1.3022     -0.3400     -0.6168
O               -0.7886      0.4848      1.3105
H               -1.7450      0.5214      1.5106
H               -1.0101     -0.7865     -1.7481
9
P12 HEAT OF FORMATION = -142321.46397 KCAL = -595472.58794 KJ
C               -0.4169      0.0294      0.1680
C                1.0444      0.0167     -0.1005
H                1.2900      0.8414     -0.7661
H                1.3406     -0.9117     -0.5731
H                1.5790      0.1491      0.8258
O               -1.3020     -0.3401     -0.6122
O               -0.7885      0.4875      1.3124
H               -1.7445      0.5247      1.5136
H               -1.0021     -0.7970     -1.7680
9
P13 HEAT OF FORMATION = -142317.14123 KCAL = -595454.50160 KJ
C               -0.4193      0.0293      0.1687
C                1.0427      0.0175     -0.0985
H                1.2890      0.8450     -0.7604
H                1.3395     -0.9091     -0.5740
H                1.5763      0.1466      0.8289
O               -1.3017     -0.3402     -0.6076
O               -0.7885      0.4901      1.3143
H               -1.7440      0.5281      1.5167
H               -0.9940     -0.8074     -1.7880
9
P14 HEAT OF FORMATION = -142312.74292 KCAL = -595436.09908 KJ
C               -0.4218      0.0292      0.1693
C                1.0411      0.0184     -0.0965
H                1.2879      0.8479     -0.7555
H                1.3385     -0.9070     -0.5739
H                1.5736      0.1450      0.8318
O               -1.3014     -0.3402     -0.6031
O               -0.7885      0.4925      1.3163
H               -1.7436      0.5310      1.5199
H               -0.9859     -0.8169     -1.8083
9
P15 HEAT OF FORMATION = -142308.29125 KCAL = -595417.47331 KJ
C               -0.4242      0.0292      0.1700
C                1.0395      0.0192     -0.0945
H                1.2866      0.8502     -0.7514
H                1.3376     -0.9053     -0.5730
H                1.5710      0.1444      0.8346
O               -1.3011     -0.3396     -0.5989
O               -0.7884      0.4944      1.3186
H               -1.7431      0.5335      1.5234
H               -0.9779     -0.8260     -1.8289
9
P16 HEAT OF FORMATION = -142303.80502 KCAL = -595398.70295 KJ
C               -0.4267      0.0292      0.1708
C                1.0379      0.0201     -0.0923
H                1.2853      0.8518     -0.7480
H                1.3367     -0.9039     -0.5714
H                1.5684      0.1444      0.8374
O               -1.3006     -0.3387     -0.5947
O               -0.7884      0.4959      1.3211
H               -1.7427      0.5357      1.5269
H               -0.9700     -0.8345     -1.8497
9
P17 HEAT OF FORMATION = -142299.29985 KCAL = -595379.85331 KJ
C               -0.4291      0.0291      0.1715
C                1.0363      0.0209     -0.0901
H                1.2841      0.8536     -0.7446
H                1.3359     -0.9025     -0.5697
H                1.5659      0.1445      0.8402
O               -1.3002     -0.3378     -0.5907
O               -0.7884      0.4975      1.3237
H               -1.7423      0.5379      1.5303
H               -0.9624     -0.8432     -1.8707
9
P18 HEAT OF FORMATION = -142294.79051 KCAL = -595360.98626 KJ
C               -0.4316      0.0290      0.1723
C                1.0347      0.0218     -0.0880
H                1.2827      0.8557     -0.7406
H                1.3349     -0.9009     -0.5687
H                1.5633      0.1439      0.8429
O               -1.2997     -0.3375     -0.5864
O               -0.7884      0.4994      1.3261
H               -1.7418      0.5405      1.5339
H               -0.9542     -0.8519     -1.8914
9
P19 HEAT OF FORMATION = -142290.28803 KCAL = -595342.14790 KJ
C               -0.4339      0.0290      0.1731
C                1.0333      0.0227     -0.0858
H                1.2817      0.8579     -0.7366
H                1.3341     -0.8993     -0.5674
H                1.5609      0.1435      0.8459
O               -1.2990     -0.3372     -0.5822
O               -0.7883      0.5014      1.3285
H               -1.7415      0.5427      1.5371
H               -0.9473     -0.8608     -1.9126
9
P20 HEAT OF FORMATION = -142285.80220 KCAL = -595323.37917 KJ
C               -0.4362      0.0289      0.1739
C                1.0319      0.0236     -0.0836
H                1.2805      0.8600     -0.7327
H                1.3333     -0.8977     -0.5662
H                1.5584      0.1432      0.8488
O               -1.2983     -0.3367     -0.5780
O               -0.7883      0.5033      1.3310
H               -1.7411      0.5451      1.5404
H               -0.9402     -0.8697     -1.9337
