12
P1 HEAT OF FORMATION = -166655.82861 KCAL = -697287.49823 KJ
C               -0.8243     -0.0100      0.2325
C               -0.7878     -0.0206     -1.2588
H               -1.7950     -0.0368     -1.6411
H               -0.2518     -0.8969     -1.6083
H               -0.2752      0.8644     -1.6210
O               -1.9591     -0.0195      0.8033
O                0.2189      0.0082      0.9772
C                1.6393      0.0260      0.5147
H                1.8097      0.9368     -0.0342
H                1.8194     -0.8503     -0.0850
H                2.2065      0.0032      1.4257
H               -1.8007     -0.0045      2.2949
12
P2 HEAT OF FORMATION = -166659.96190 KCAL = -697304.79190 KJ
C               -0.8227     -0.0100      0.2337
C               -0.7886     -0.0179     -1.2570
H               -1.7961     -0.0383     -1.6381
H               -0.2485     -0.8902     -1.6091
H               -0.2811      0.8703     -1.6181
O               -1.9580     -0.0200      0.8066
O                0.2199      0.0066      0.9779
C                1.6413      0.0238      0.5175
H                1.8101      0.9288     -0.0413
H                1.8240     -0.8588     -0.0721
H                2.2068      0.0124      1.4299
H               -1.8071     -0.0068      2.2702
12
P3 HEAT OF FORMATION = -166664.13202 KCAL = -697322.23966 KJ
C               -0.8204     -0.0099      0.2356
C               -0.7891     -0.0151     -1.2547
H               -1.7974     -0.0348     -1.6338
H               -0.2496     -0.8868     -1.6094
H               -0.2822      0.8737     -1.6154
O               -1.9564     -0.0212      0.8095
O                0.2217      0.0058      0.9789
C                1.6440      0.0224      0.5195
H                1.8103      0.9210     -0.0500
H                1.8293     -0.8669     -0.0586
H                2.2080      0.0241      1.4326
H               -1.8181     -0.0124      2.2456
12
P4 HEAT OF FORMATION = -166668.33081 KCAL = -697339.80741 KJ
C               -0.8183     -0.0099      0.2376
C               -0.7895     -0.0133     -1.2523
H               -1.7985     -0.0312     -1.6296
H               -0.2517     -0.8853     -1.6091
H               -0.2818      0.8751     -1.6130
O               -1.9550     -0.0224      0.8125
O                0.2234      0.0052      0.9801
C                1.6464      0.0218      0.5216
H                1.8110      0.9162     -0.0549
H                1.8336     -0.8717     -0.0492
H                2.2092      0.0319      1.4353
H               -1.8289     -0.0163      2.2210
12
P5 HEAT OF FORMATION = -166672.54501 KCAL = -697357.43958 KJ
C               -0.8163     -0.0099      0.2395
C               -0.7897     -0.0128     -1.2499
H               -1.7994     -0.0255     -1.6256
H               -0.2572     -0.8878     -1.6076
H               -0.2776      0.8727     -1.6116
O               -1.9536     -0.0237      0.8155
O                0.2249      0.0053      0.9814
C                1.6486      0.0226      0.5238
H                1.8120      0.9156     -0.0552
H                1.8368     -0.8724     -0.0446
H                2.2106      0.0358      1.4379
H               -1.8391     -0.0198      2.1963
12
P6 HEAT OF FORMATION = -166676.75877 KCAL = -697375.06997 KJ
C               -0.8142     -0.0099      0.2414
C               -0.7902     -0.0120     -1.2476
H               -1.8006     -0.0222     -1.6215
H               -0.2603     -0.8882     -1.6067
H               -0.2764      0.8723     -1.6100
O               -1.9521     -0.0245      0.8185
O                0.2265      0.0047      0.9826
C                1.6510      0.0226      0.5260
H                1.8134      0.9138     -0.0560
H                1.8404     -0.8743     -0.0388
H                2.2117      0.0401      1.4407
H               -1.8491     -0.0224      2.1714
12
P7 HEAT OF FORMATION = -166680.95478 KCAL = -697392.62606 KJ
C               -0.8123     -0.0100      0.2434
C               -0.7904     -0.0113     -1.2451
H               -1.8014     -0.0224     -1.6174
H               -0.2600     -0.8866     -1.6057
H               -0.2782      0.8737     -1.6080
O               -1.9506     -0.0245      0.8215
O                0.2279      0.0044      0.9839
C                1.6532      0.0221      0.5280
H                1.8149      0.9118     -0.0564
H                1.8430     -0.8764     -0.0340
H                2.2129      0.0425      1.4432
H               -1.8591     -0.0232      2.1466
12
P8 HEAT OF FORMATION = -166685.11070 KCAL = -697410.01441 KJ
C               -0.8105     -0.0099      0.2452
C               -0.7908     -0.0108     -1.2428
H               -1.8023     -0.0217     -1.6136
H               -0.2609     -0.8859     -1.6045
H               -0.2789      0.8741     -1.6064
O               -1.9493     -0.0245      0.8246
O                0.2293      0.0041      0.9852
C                1.6552      0.0219      0.5303
H                1.8165      0.9104     -0.0561
H                1.8456     -0.8779     -0.0294
H                2.2140      0.0447      1.4459
H               -1.8679     -0.0245      2.1216
12
P9 HEAT OF FORMATION = -166689.20215 KCAL = -697427.13301 KJ
C               -0.8086     -0.0098      0.2471
C               -0.7910     -0.0106     -1.2404
H               -1.8032     -0.0243     -1.6095
H               -0.2589     -0.8838     -1.6034
H               -0.2825      0.8760     -1.6046
O               -1.9480     -0.0246      0.8276
O                0.2306      0.0043      0.9866
C                1.6573      0.0213      0.5325
H                1.8188      0.9094     -0.0543
H                1.8473     -0.8789     -0.0266
H                2.2155      0.0443      1.4486
H               -1.8772     -0.0233      2.0965
12
P10 HEAT OF FORMATION = -166693.20015 KCAL = -697443.86065 KJ
C               -0.8070     -0.0096      0.2492
C               -0.7911     -0.0125     -1.2379
H               -1.8036     -0.0287     -1.6057
H               -0.2574     -0.8849     -1.6005
H               -0.2847      0.8747     -1.6039
O               -1.9465     -0.0228      0.8306
O                0.2318      0.0055      0.9882
C                1.6590      0.0219      0.5344
H                1.8223      0.9145     -0.0450
H                1.8466     -0.8743     -0.0319
H                2.2168      0.0361      1.4511
H               -1.8862     -0.0199      2.0715
12
P11 HEAT OF FORMATION = -166697.07090 KCAL = -697460.05586 KJ
C               -0.8055     -0.0097      0.2510
C               -0.7915     -0.0135     -1.2356
H               -1.8045     -0.0286     -1.6020
H               -0.2596     -0.8869     -1.5985
H               -0.2841      0.8725     -1.6031
O               -1.9452     -0.0226      0.8337
O                0.2330      0.0058      0.9895
C                1.6608      0.0227      0.5367
H                1.8249      0.9178     -0.0387
H                1.8478     -0.8713     -0.0334
H                2.2176      0.0326      1.4540
H               -1.8938     -0.0188      2.0463
12
P12 HEAT OF FORMATION = -166700.77498 KCAL = -697475.55371 KJ
C               -0.8040     -0.0097      0.2529
C               -0.7918     -0.0140     -1.2333
H               -1.8054     -0.0273     -1.5983
H               -0.2620     -0.8887     -1.5966
H               -0.2830      0.8707     -1.6020
O               -1.9439     -0.0228      0.8368
O                0.2340      0.0058      0.9908
C                1.6626      0.0233      0.5390
H                1.8268      0.9198     -0.0343
H                1.8494     -0.8696     -0.0330
H                2.2184      0.0311      1.4568
H               -1.9013     -0.0186      2.0210
12
P13 HEAT OF FORMATION = -166704.26672 KCAL = -697490.16312 KJ
C               -0.8026     -0.0097      0.2548
C               -0.7921     -0.0136     -1.2309
H               -1.8061     -0.0279     -1.5946
H               -0.2617     -0.8874     -1.5953
H               -0.2848      0.8718     -1.6002
O               -1.9426     -0.0227      0.8398
O                0.2351      0.0058      0.9923
C                1.6643      0.0229      0.5413
H                1.8284      0.9184     -0.0335
H                1.8513     -0.8709     -0.0290
H                2.2193      0.0324      1.4596
H               -1.9085     -0.0191      1.9958
12
P14 HEAT OF FORMATION = -166707.49183 KCAL = -697503.65699 KJ
C               -0.8013     -0.0096      0.2567
C               -0.7924     -0.0134     -1.2286
H               -1.8069     -0.0276     -1.5910
H               -0.2623     -0.8871     -1.5938
H               -0.2853      0.8720     -1.5984
O               -1.9413     -0.0228      0.8429
O                0.2360      0.0057      0.9937
C                1.6659      0.0229      0.5435
H                1.8297      0.9180     -0.0319
H                1.8531     -0.8716     -0.0258
H                2.2200      0.0332      1.4623
H               -1.9152     -0.0196      1.9704
12
P15 HEAT OF FORMATION = -166710.38623 KCAL = -697515.76716 KJ
C               -0.8000     -0.0096      0.2585
C               -0.7927     -0.0135     -1.2263
H               -1.8076     -0.0276     -1.5875
H               -0.2631     -0.8872     -1.5922
H               -0.2860      0.8717     -1.5969
O               -1.9400     -0.0228      0.8460
O                0.2369      0.0057      0.9951
C                1.6675      0.0230      0.5458
H                1.8314      0.9183     -0.0291
H                1.8546     -0.8714     -0.0236
H                2.2207      0.0330      1.4652
H               -1.9216     -0.0196      1.9450
12
P16 HEAT OF FORMATION = -166712.86980 KCAL = -697526.15839 KJ
C               -0.7994     -0.0096      0.2600
C               -0.7932     -0.0135     -1.2244
H               -1.8084     -0.0277     -1.5850
H               -0.2636     -0.8871     -1.5906
H               -0.2864      0.8716     -1.5953
O               -1.9390     -0.0227      0.8495
O                0.2371      0.0056      0.9963
C                1.6684      0.0230      0.5483
H                1.8325      0.9185     -0.0263
H                1.8559     -0.8714     -0.0209
H                2.2204      0.0330      1.4684
H               -1.9243     -0.0197      1.9200
12
P17 HEAT OF FORMATION = -166714.86476 KCAL = -697534.50530 KJ
C               -0.7978     -0.0095      0.2621
C               -0.7935     -0.0137     -1.2218
H               -1.8092     -0.0277     -1.5809
H               -0.2646     -0.8875     -1.5888
H               -0.2869      0.8710     -1.5938
O               -1.9375     -0.0226      0.8523
O                0.2384      0.0059      0.9979
C                1.6703      0.0232      0.5505
H                1.8346      0.9193     -0.0232
H                1.8575     -0.8707     -0.0195
H                2.2216      0.0320      1.4709
H               -1.9328     -0.0197      1.8942
12
P18 HEAT OF FORMATION = -166716.25166 KCAL = -697540.30810 KJ
C               -0.7967     -0.0096      0.2641
C               -0.7938     -0.0137     -1.2194
H               -1.8099     -0.0276     -1.5773
H               -0.2654     -0.8874     -1.5872
H               -0.2876      0.8710     -1.5922
O               -1.9363     -0.0227      0.8553
O                0.2392      0.0060      0.9995
C                1.6718      0.0232      0.5528
H                1.8361      0.9194     -0.0208
H                1.8589     -0.8708     -0.0171
H                2.2222      0.0321      1.4737
H               -1.9385     -0.0198      1.8685
12
P19 HEAT OF FORMATION = -166716.90445 KCAL = -697543.03935 KJ
C               -0.7957     -0.0096      0.2661
C               -0.7941     -0.0137     -1.2170
H               -1.8105     -0.0276     -1.5739
H               -0.2658     -0.8873     -1.5854
H               -0.2883      0.8710     -1.5903
O               -1.9352     -0.0226      0.8583
O                0.2399      0.0059      1.0010
C                1.6731      0.0232      0.5550
H                1.8373      0.9193     -0.0186
H                1.8602     -0.8710     -0.0145
H                2.2228      0.0323      1.4764
H               -1.9437     -0.0199      1.8429
12
P20 HEAT OF FORMATION = -166716.66956 KCAL = -697542.05658 KJ
C               -0.7947     -0.0095      0.2683
C               -0.7942     -0.0136     -1.2145
H               -1.8110     -0.0276     -1.5705
H               -0.2663     -0.8872     -1.5835
H               -0.2886      0.8710     -1.5883
O               -1.9341     -0.0226      0.8612
O                0.2405      0.0059      1.0028
C                1.6743      0.0232      0.5572
H                1.8383      0.9194     -0.0164
H                1.8612     -0.8711     -0.0122
H                2.2233      0.0324      1.4789
H               -1.9488     -0.0201      1.8171
