14
P1 HEAT OF FORMATION = -167561.51940 KCAL = -701076.90583 KJ
H                1.3622     -1.4942      0.3382
C                0.4978     -1.0939     -0.1911
H                0.6903     -1.1212     -1.2607
C                0.1518      0.3683      0.2212
H               -0.3781     -1.6990      0.0042
C                1.3458      1.2951     -0.1460
H                0.1230      0.3548      1.3325
O               -1.0058      0.8128     -0.3833
H                1.4482      1.3004     -1.2270
H                2.2869      0.9808      0.3051
H                1.1154      2.3070      0.1734
H               -2.0864     -0.2599     -0.2233
O               -2.7141     -0.9473      0.0531
H               -2.8368     -0.8038      1.0037
14
P2 HEAT OF FORMATION = -167562.77608 KCAL = -701082.16378 KJ
H                1.3537     -1.4994      0.3411
C                0.4932     -1.0961     -0.1924
H                0.6911     -1.1227     -1.2608
C                0.1510      0.3664      0.2197
H               -0.3868     -1.6963     -0.0012
C                1.3446      1.2925     -0.1447
H                0.1177      0.3538      1.3299
O               -1.0064      0.8135     -0.3884
H                1.4519      1.2995     -1.2251
H                2.2837      0.9771      0.3102
H                1.1141      2.3047      0.1737
H               -2.0648     -0.2384     -0.2247
O               -2.7080     -0.9512      0.0560
H               -2.8351     -0.8034      1.0065
14
P3 HEAT OF FORMATION = -167563.41886 KCAL = -701084.85319 KJ
H                1.3405     -1.5058      0.3465
C                0.4869     -1.0975     -0.1934
H                0.6935     -1.1246     -1.2603
C                0.1498      0.3654      0.2182
H               -0.3988     -1.6910     -0.0095
C                1.3437      1.2899     -0.1431
H                0.1096      0.3545      1.3272
O               -1.0059      0.8161     -0.3953
H                1.4550      1.2948     -1.2230
H                2.2800      0.9738      0.3156
H                1.1129      2.3023      0.1736
H               -2.0434     -0.2133     -0.2262
O               -2.6996     -0.9539      0.0587
H               -2.8242     -0.8106      1.0110
14
P4 HEAT OF FORMATION = -167563.60994 KCAL = -701085.65265 KJ
H                1.3307     -1.5119      0.3497
C                0.4813     -1.0996     -0.1938
H                0.6927     -1.1262     -1.2597
C                0.1488      0.3635      0.2173
H               -0.4091     -1.6872     -0.0138
C                1.3425      1.2873     -0.1417
H                0.1018      0.3540      1.3250
O               -1.0050      0.8181     -0.4009
H                1.4575      1.2910     -1.2212
H                2.2770      0.9708      0.3205
H                1.1120      2.3005      0.1735
H               -2.0224     -0.1883     -0.2287
O               -2.6925     -0.9558      0.0599
H               -2.8152     -0.8162      1.0139
14
P5 HEAT OF FORMATION = -167563.48314 KCAL = -701085.12212 KJ
H                1.3189     -1.5177      0.3546
C                0.4753     -1.1012     -0.1946
H                0.6947     -1.1277     -1.2590
C                0.1478      0.3616      0.2163
H               -0.4203     -1.6825     -0.0213
C                1.3413      1.2843     -0.1399
H                0.0936      0.3534      1.3226
O               -1.0044      0.8202     -0.4075
H                1.4588      1.2868     -1.2188
H                2.2741      0.9675      0.3248
H                1.1103      2.2975      0.1739
H               -2.0016     -0.1634     -0.2318
O               -2.6837     -0.9586      0.0627
H               -2.8047     -0.8200      1.0180
14
P6 HEAT OF FORMATION = -167563.14922 KCAL = -701083.72501 KJ
H                1.3090     -1.5224      0.3570
C                0.4678     -1.1023     -0.1932
H                0.6893     -1.1292     -1.2572
C                0.1474      0.3604      0.2188
H               -0.4317     -1.6787     -0.0229
C                1.3402      1.2810     -0.1382
H                0.0874      0.3533      1.3237
O               -1.0033      0.8248     -0.4087
H                1.4572      1.2808     -1.2173
H                2.2736      0.9647      0.3261
H                1.1102      2.2954      0.1726
H               -1.9789     -0.1385     -0.2369
O               -2.6733     -0.9624      0.0599
H               -2.7949     -0.8269      1.0163
14
P7 HEAT OF FORMATION = -167562.69463 KCAL = -701081.82302 KJ
H                1.2980     -1.5278      0.3599
C                0.4605     -1.1029     -0.1919
H                0.6845     -1.1300     -1.2554
C                0.1481      0.3599      0.2216
H               -0.4440     -1.6723     -0.0247
C                1.3400      1.2783     -0.1380
H                0.0862      0.3543      1.3253
O               -1.0036      0.8295     -0.4055
H                1.4579      1.2746     -1.2170
H                2.2724      0.9617      0.3276
H                1.1112      2.2939      0.1696
H               -1.9568     -0.1149     -0.2401
O               -2.6628     -0.9689      0.0558
H               -2.7916     -0.8354      1.0127
14
P8 HEAT OF FORMATION = -167562.18716 KCAL = -701079.69975 KJ
H                1.2876     -1.5339      0.3627
C                0.4544     -1.1043     -0.1921
H                0.6838     -1.1307     -1.2545
C                0.1486      0.3589      0.2224
H               -0.4555     -1.6660     -0.0288
C                1.3398      1.2763     -0.1381
H                0.0845      0.3541      1.3250
O               -1.0046      0.8317     -0.4047
H                1.4607      1.2702     -1.2165
H                2.2701      0.9593      0.3309
H                1.1119      2.2922      0.1683
H               -1.9349     -0.0936     -0.2427
O               -2.6539     -0.9753      0.0559
H               -2.7924     -0.8389      1.0122
14
P9 HEAT OF FORMATION = -167561.67799 KCAL = -701077.56940 KJ
H                1.2747     -1.5411      0.3679
C                0.4478     -1.1062     -0.1920
H                0.6840     -1.1331     -1.2530
C                0.1485      0.3570      0.2231
H               -0.4683     -1.6597     -0.0346
C                1.3386      1.2737     -0.1368
H                0.0787      0.3539      1.3242
O               -1.0038      0.8346     -0.4075
H                1.4604      1.2665     -1.2151
H                2.2683      0.9563      0.3330
H                1.1109      2.2901      0.1683
H               -1.9141     -0.0686     -0.2474
O               -2.6440     -0.9788      0.0560
H               -2.7816     -0.8446      1.0139
14
P10 HEAT OF FORMATION = -167561.20127 KCAL = -701075.57478 KJ
H                1.2602     -1.5488      0.3740
C                0.4402     -1.1076     -0.1909
H                0.6836     -1.1351     -1.2503
C                0.1492      0.3558      0.2254
H               -0.4825     -1.6519     -0.0397
C                1.3378      1.2712     -0.1366
H                0.0758      0.3542      1.3252
O               -1.0036      0.8385     -0.4058
H                1.4594      1.2620     -1.2147
H                2.2672      0.9536      0.3333
H                1.1112      2.2884      0.1665
H               -1.8935     -0.0436     -0.2522
O               -2.6342     -0.9834      0.0529
H               -2.7708     -0.8535      1.0128
14
P11 HEAT OF FORMATION = -167560.77486 KCAL = -701073.79070 KJ
H                1.2452     -1.5562      0.3806
C                0.4320     -1.1087     -0.1890
H                0.6822     -1.1369     -1.2469
C                0.1501      0.3552      0.2285
H               -0.4980     -1.6429     -0.0438
C                1.3372      1.2687     -0.1369
H                0.0744      0.3553      1.3269
O               -1.0040      0.8433     -0.4020
H                1.4579      1.2575     -1.2150
H                2.2665      0.9503      0.3323
H                1.1126      2.2867      0.1648
H               -1.8729     -0.0190     -0.2577
O               -2.6238     -0.9890      0.0479
H               -2.7593     -0.8642      1.0101
14
P12 HEAT OF FORMATION = -167560.40416 KCAL = -701072.23968 KJ
H                1.2312     -1.5628      0.3865
C                0.4248     -1.1104     -0.1884
H                0.6823     -1.1399     -1.2445
C                0.1499      0.3538      0.2288
H               -0.5117     -1.6352     -0.0490
C                1.3362      1.2662     -0.1362
H                0.0691      0.3559      1.3259
O               -1.0039      0.8459     -0.4046
H                1.4570      1.2555     -1.2143
H                2.2646      0.9456      0.3329
H                1.1137      2.2843      0.1665
H               -1.8523      0.0053     -0.2622
O               -2.6134     -0.9936      0.0474
H               -2.7476     -0.8707      1.0112
14
P13 HEAT OF FORMATION = -167560.07348 KCAL = -701070.85612 KJ
H                1.2150     -1.5700      0.3943
C                0.4165     -1.1115     -0.1869
H                0.6824     -1.1428     -1.2410
C                0.1499      0.3532      0.2303
H               -0.5271     -1.6259     -0.0541
C                1.3355      1.2638     -0.1364
H                0.0656      0.3577      1.3262
O               -1.0042      0.8500     -0.4040
H                1.4552      1.2531     -1.2147
H                2.2634      0.9404      0.3313
H                1.1167      2.2824      0.1675
H               -1.8320      0.0305     -0.2668
O               -2.6022     -0.9989      0.0442
H               -2.7349     -0.8821      1.0101
14
P14 HEAT OF FORMATION = -167559.75550 KCAL = -701069.52570 KJ
H                1.1999     -1.5772      0.4021
C                0.4090     -1.1129     -0.1848
H                0.6828     -1.1455     -1.2370
C                0.1507      0.3523      0.2328
H               -0.5421     -1.6170     -0.0585
C                1.3351      1.2615     -0.1370
H                0.0642      0.3588      1.3276
O               -1.0045      0.8534     -0.4011
H                1.4528      1.2504     -1.2154
H                2.2631      0.9361      0.3289
H                1.1186      2.2803      0.1675
H               -1.8134      0.0561     -0.2726
O               -2.5942     -1.0029      0.0393
H               -2.7220     -0.8935      1.0080
14
P15 HEAT OF FORMATION = -167559.40156 KCAL = -701068.04482 KJ
H                1.1862     -1.5836      0.4084
C                0.4016     -1.1143     -0.1826
H                0.6812     -1.1486     -1.2330
C                0.1514      0.3514      0.2356
H               -0.5558     -1.6089     -0.0613
C                1.3344      1.2591     -0.1374
H                0.0633      0.3598      1.3293
O               -1.0050      0.8569     -0.3974
H                1.4492      1.2481     -1.2159
H                2.2628      0.9316      0.3259
H                1.1211      2.2783      0.1682
H               -1.7934      0.0802     -0.2779
O               -2.5851     -1.0081      0.0339
H               -2.7119     -0.9018      1.0042
14
P16 HEAT OF FORMATION = -167558.94344 KCAL = -701066.12804 KJ
H                1.1696     -1.5909      0.4168
C                0.3933     -1.1156     -0.1806
H                0.6814     -1.1516     -1.2287
C                0.1517      0.3506      0.2377
H               -0.5719     -1.5993     -0.0667
C                1.3335      1.2566     -0.1378
H                0.0611      0.3611      1.3304
O               -1.0054      0.8608     -0.3950
H                1.4458      1.2462     -1.2165
H                2.2619      0.9264      0.3230
H                1.1236      2.2760      0.1692
H               -1.7733      0.1049     -0.2832
O               -2.5739     -1.0138      0.0296
H               -2.6975     -0.9113      1.0019
14
P17 HEAT OF FORMATION = -167558.29283 KCAL = -701063.40590 KJ
H                1.1553     -1.5978      0.4229
C                0.3858     -1.1172     -0.1784
H                0.6794     -1.1551     -1.2249
C                0.1523      0.3497      0.2401
H               -0.5862     -1.5905     -0.0687
C                1.3332      1.2544     -0.1381
H                0.0601      0.3621      1.3319
O               -1.0057      0.8638     -0.3922
H                1.4432      1.2441     -1.2170
H                2.2619      0.9222      0.3206
H                1.1259      2.2740      0.1697
H               -1.7547      0.1302     -0.2886
O               -2.5652     -1.0183      0.0240
H               -2.6854     -0.9214      0.9987
14
P18 HEAT OF FORMATION = -167557.33444 KCAL = -701059.39597 KJ
H                1.1411     -1.6045      0.4294
C                0.3787     -1.1187     -0.1769
H                0.6797     -1.1579     -1.2215
C                0.1528      0.3484      0.2426
H               -0.6000     -1.5823     -0.0735
C                1.3325      1.2520     -0.1385
H                0.0594      0.3626      1.3335
O               -1.0064      0.8663     -0.3885
H                1.4406      1.2410     -1.2175
H                2.2612      0.9183      0.3185
H                1.1278      2.2722      0.1697
H               -1.7357      0.1543     -0.2932
O               -2.5564     -1.0236      0.0199
H               -2.6753     -0.9283      0.9958
14
P19 HEAT OF FORMATION = -167555.92453 KCAL = -701053.49692 KJ
H                1.1270     -1.6111      0.4354
C                0.3714     -1.1203     -0.1753
H                0.6785     -1.1611     -1.2181
C                0.1529      0.3472      0.2446
H               -0.6140     -1.5741     -0.0770
C                1.3318      1.2496     -0.1386
H                0.0579      0.3628      1.3349
O               -1.0069      0.8692     -0.3857
H                1.4383      1.2384     -1.2177
H                2.2604      0.9142      0.3170
H                1.1293      2.2700      0.1700
H               -1.7167      0.1790     -0.2983
O               -2.5473     -1.0283      0.0156
H               -2.6626     -0.9355      0.9932
14
P20 HEAT OF FORMATION = -167553.88645 KCAL = -701044.96959 KJ
H                1.1135     -1.6176      0.4411
C                0.3644     -1.1221     -0.1739
H                0.6776     -1.1643     -1.2150
C                0.1530      0.3458      0.2464
H               -0.6276     -1.5662     -0.0804
C                1.3311      1.2472     -0.1386
H                0.0563      0.3629      1.3359
O               -1.0074      0.8714     -0.3834
H                1.4361      1.2362     -1.2178
H                2.2597      0.9101      0.3155
H                1.1309      2.2679      0.1708
H               -1.6978      0.2034     -0.3034
O               -2.5383     -1.0331      0.0120
H               -2.6514     -0.9416      0.9911
