14
P1 HEAT OF FORMATION = -167439.36552 KCAL = -700565.81437 KJ
O               -0.4473     -1.5169     -0.3066
C               -0.6054     -0.3383      0.3547
O                0.6818      0.5065     -0.0054
H               -0.4885     -0.5056      1.4059
C               -1.7709      0.5361     -0.0331
H               -1.7361      0.7821     -1.0877
H               -1.7914      1.4455      0.5521
H               -2.6861     -0.0077      0.1679
H               -0.8101     -1.5431     -1.2053
H                0.6231      1.4784     -0.0292
H                2.4520      0.0493      1.0319
C                2.0538     -0.1101      0.0451
H                1.8888     -1.1489     -0.1705
H                2.6362      0.3726     -0.7199
14
P2 HEAT OF FORMATION = -167438.80782 KCAL = -700563.48095 KJ
O               -0.4478     -1.5187     -0.3062
C               -0.6046     -0.3393      0.3545
O                0.6815      0.5040     -0.0088
H               -0.4866     -0.5058      1.4057
C               -1.7711      0.5339     -0.0328
H               -1.7368      0.7799     -1.0874
H               -1.7921      1.4433      0.5523
H               -2.6856     -0.0106      0.1688
H               -0.8108     -1.5448     -1.2048
H                0.6225      1.5038     -0.0300
H                2.4495      0.0457      1.0334
C                2.0537     -0.1120      0.0453
H                1.8899     -1.1509     -0.1722
H                2.6383      0.3716     -0.7177
14
P3 HEAT OF FORMATION = -167437.50524 KCAL = -700558.03094 KJ
O               -0.4483     -1.5209     -0.3061
C               -0.6035     -0.3403      0.3537
O                0.6814      0.5015     -0.0138
H               -0.4840     -0.5065      1.4050
C               -1.7712      0.5320     -0.0321
H               -1.7376      0.7788     -1.0865
H               -1.7933      1.4408      0.5538
H               -2.6851     -0.0137      0.1693
H               -0.8113     -1.5469     -1.2047
H                0.6224      1.5290     -0.0311
H                2.4459      0.0440      1.0350
C                2.0535     -0.1140      0.0454
H                1.8903     -1.1530     -0.1724
H                2.6407      0.3692     -0.7157
14
P4 HEAT OF FORMATION = -167435.58205 KCAL = -700549.98433 KJ
O               -0.4489     -1.5228     -0.3062
C               -0.6025     -0.3412      0.3528
O                0.6811      0.4988     -0.0186
H               -0.4819     -0.5070      1.4040
C               -1.7713      0.5299     -0.0315
H               -1.7380      0.7780     -1.0855
H               -1.7942      1.4380      0.5557
H               -2.6845     -0.0171      0.1696
H               -0.8118     -1.5483     -1.2049
H                0.6218      1.5541     -0.0318
H                2.4433      0.0429      1.0360
C                2.0532     -0.1160      0.0458
H                1.8910     -1.1554     -0.1713
H                2.6426      0.3662     -0.7142
14
P5 HEAT OF FORMATION = -167433.15466 KCAL = -700539.82816 KJ
O               -0.4454     -1.5250     -0.2917
C               -0.6018     -0.3373      0.3555
O                0.6806      0.5009     -0.0300
H               -0.4805     -0.4922      1.4086
C               -1.7722      0.5262     -0.0394
H               -1.7374      0.7640     -1.0956
H               -1.7999      1.4404      0.5376
H               -2.6837     -0.0217      0.1661
H               -0.8087     -1.5603     -1.1897
H                0.6317      1.5831      0.0278
H                2.4367      0.0254      1.0282
C                2.0503     -0.1194      0.0344
H                1.8852     -1.1553     -0.1956
H                2.6451      0.3711     -0.7161
14
P6 HEAT OF FORMATION = -167430.30795 KCAL = -700527.91753 KJ
O               -0.4446     -1.5268     -0.2899
C               -0.6009     -0.3375      0.3555
O                0.6801      0.4993     -0.0335
H               -0.4795     -0.4907      1.4088
C               -1.7727      0.5241     -0.0401
H               -1.7348      0.7635     -1.0958
H               -1.8038      1.4373      0.5386
H               -2.6838     -0.0261      0.1620
H               -0.8088     -1.5629     -1.1876
H                0.6328      1.6085      0.0366
H                2.4362      0.0234      1.0269
C                2.0501     -0.1216      0.0329
H                1.8850     -1.1579     -0.1961
H                2.6446      0.3675     -0.7184
14
P7 HEAT OF FORMATION = -167427.10374 KCAL = -700514.51110 KJ
O               -0.4445     -1.5288     -0.2877
C               -0.5999     -0.3377      0.3550
O                0.6797      0.4973     -0.0398
H               -0.4767     -0.4890      1.4086
C               -1.7729      0.5219     -0.0407
H               -1.7351      0.7615     -1.0963
H               -1.8057      1.4352      0.5381
H               -2.6831     -0.0298      0.1614
H               -0.8093     -1.5662     -1.1851
H                0.6338      1.6335      0.0439
H                2.4320      0.0185      1.0276
C                2.0493     -0.1237      0.0317
H                1.8854     -1.1596     -0.2004
H                2.6471      0.3669     -0.7161
14
P8 HEAT OF FORMATION = -167423.62121 KCAL = -700499.94020 KJ
O               -0.4436     -1.5309     -0.2831
C               -0.5987     -0.3370      0.3555
O                0.6793      0.4966     -0.0461
H               -0.4748     -0.4839      1.4095
C               -1.7732      0.5193     -0.0429
H               -1.7348      0.7559     -1.0992
H               -1.8081      1.4342      0.5329
H               -2.6826     -0.0333      0.1601
H               -0.8097     -1.5716     -1.1798
H                0.6370      1.6584      0.0636
H                2.4275      0.0105      1.0261
C                2.0484     -0.1258      0.0280
H                1.8844     -1.1605     -0.2096
H                2.6490      0.3682     -0.7150
14
P9 HEAT OF FORMATION = -167419.90515 KCAL = -700484.39223 KJ
O               -0.4442     -1.5357     -0.2652
C               -0.5969     -0.3339      0.3596
O                0.6785      0.4944     -0.0585
H               -0.4695     -0.4688      1.4148
C               -1.7737      0.5164     -0.0449
H               -1.7379      0.7415     -1.1037
H               -1.8087      1.4375      0.5209
H               -2.6818     -0.0352      0.1667
H               -0.8105     -1.5857     -1.1613
H                0.6379      1.6837      0.0555
H                2.4244      0.0146      1.0217
C                2.0476     -0.1273      0.0235
H                1.8846     -1.1637     -0.2082
H                2.6501      0.3621     -0.7210
14
P10 HEAT OF FORMATION = -167416.00563 KCAL = -700468.07666 KJ
O               -0.4430     -1.5374     -0.2623
C               -0.5955     -0.3333      0.3591
O                0.6783      0.4933     -0.0650
H               -0.4666     -0.4648      1.4147
C               -1.7739      0.5138     -0.0466
H               -1.7378      0.7376     -1.1056
H               -1.8109      1.4358      0.5177
H               -2.6810     -0.0392      0.1654
H               -0.8135     -1.5910     -1.1565
H                0.6408      1.7083      0.0709
H                2.4199      0.0083      1.0212
C                2.0466     -0.1293      0.0210
H                1.8842     -1.1648     -0.2150
H                2.6524      0.3626     -0.7191
14
P11 HEAT OF FORMATION = -167411.96170 KCAL = -700451.15686 KJ
O               -0.4423     -1.5393     -0.2591
C               -0.5941     -0.3329      0.3588
O                0.6778      0.4920     -0.0716
H               -0.4638     -0.4613      1.4146
C               -1.7741      0.5115     -0.0480
H               -1.7384      0.7332     -1.1074
H               -1.8125      1.4346      0.5142
H               -2.6802     -0.0425      0.1654
H               -0.8144     -1.5955     -1.1525
H                0.6431      1.7326      0.0844
H                2.4145      0.0012      1.0213
C                2.0456     -0.1314      0.0187
H                1.8841     -1.1659     -0.2225
H                2.6549      0.3637     -0.7163
14
P12 HEAT OF FORMATION = -167407.80590 KCAL = -700433.76899 KJ
O               -0.4422     -1.5413     -0.2570
C               -0.5927     -0.3329      0.3580
O                0.6774      0.4901     -0.0782
H               -0.4607     -0.4589      1.4140
C               -1.7742      0.5093     -0.0486
H               -1.7393      0.7301     -1.1083
H               -1.8137      1.4330      0.5126
H               -2.6793     -0.0459      0.1659
H               -0.8157     -1.5993     -1.1498
H                0.6445      1.7567      0.0927
H                2.4086     -0.0051      1.0222
C                2.0447     -0.1334      0.0174
H                1.8849     -1.1671     -0.2286
H                2.6577      0.3647     -0.7125
14
P13 HEAT OF FORMATION = -167403.57220 KCAL = -700416.05522 KJ
O               -0.4416     -1.5432     -0.2546
C               -0.5913     -0.3328      0.3575
O                0.6770      0.4887     -0.0841
H               -0.4581     -0.4563      1.4137
C               -1.7743      0.5070     -0.0498
H               -1.7398      0.7259     -1.1099
H               -1.8149      1.4316      0.5096
H               -2.6787     -0.0490      0.1661
H               -0.8165     -1.6032     -1.1467
H                0.6464      1.7808      0.1052
H                2.4039     -0.0108      1.0222
C                2.0436     -0.1353      0.0155
H                1.8847     -1.1684     -0.2343
H                2.6596      0.3648     -0.7104
14
P14 HEAT OF FORMATION = -167399.28215 KCAL = -700398.10567 KJ
O               -0.4413     -1.5451     -0.2527
C               -0.5899     -0.3327      0.3568
O                0.6765      0.4871     -0.0902
H               -0.4553     -0.4541      1.4131
C               -1.7744      0.5048     -0.0507
H               -1.7407      0.7222     -1.1110
H               -1.8159      1.4302      0.5072
H               -2.6778     -0.0521      0.1667
H               -0.8174     -1.6068     -1.1441
H                0.6479      1.8047      0.1154
H                2.3987     -0.0166      1.0227
C                2.0426     -0.1372      0.0140
H                1.8851     -1.1697     -0.2398
H                2.6618      0.3652     -0.7074
14
P15 HEAT OF FORMATION = -167394.95865 KCAL = -700380.01613 KJ
O               -0.4410     -1.5471     -0.2511
C               -0.5883     -0.3328      0.3560
O                0.6761      0.4853     -0.0962
H               -0.4523     -0.4521      1.4124
C               -1.7744      0.5026     -0.0514
H               -1.7416      0.7188     -1.1120
H               -1.8167      1.4287      0.5052
H               -2.6770     -0.0551      0.1674
H               -0.8185     -1.6103     -1.1418
H                0.6492      1.8285      0.1248
H                2.3934     -0.0222      1.0233
C                2.0414     -0.1391      0.0127
H                1.8856     -1.1709     -0.2450
H                2.6640      0.3657     -0.7043
14
P16 HEAT OF FORMATION = -167390.62137 KCAL = -700361.86897 KJ
O               -0.4408     -1.5490     -0.2496
C               -0.5868     -0.3329      0.3551
O                0.6757      0.4835     -0.1018
H               -0.4495     -0.4504      1.4116
C               -1.7744      0.5004     -0.0522
H               -1.7424      0.7154     -1.1130
H               -1.8174      1.4273      0.5033
H               -2.6761     -0.0581      0.1681
H               -0.8194     -1.6135     -1.1398
H                0.6505      1.8523      0.1340
H                2.3886     -0.0272      1.0239
C                2.0403     -0.1410      0.0115
H                1.8860     -1.1723     -0.2495
H                2.6658      0.3657     -0.7015
14
P17 HEAT OF FORMATION = -167386.28676 KCAL = -700343.73301 KJ
O               -0.4406     -1.5510     -0.2484
C               -0.5852     -0.3331      0.3541
O                0.6752      0.4815     -0.1076
H               -0.4465     -0.4489      1.4106
C               -1.7743      0.4983     -0.0527
H               -1.7434      0.7123     -1.1138
H               -1.8179      1.4257      0.5018
H               -2.6751     -0.0610      0.1690
H               -0.8206     -1.6168     -1.1379
H                0.6514      1.8761      0.1419
H                2.3830     -0.0326      1.0247
C                2.0392     -0.1429      0.0105
H                1.8867     -1.1736     -0.2542
H                2.6679      0.3660     -0.6980
14
P18 HEAT OF FORMATION = -167381.96861 KCAL = -700325.66587 KJ
O               -0.4405     -1.5530     -0.2477
C               -0.5835     -0.3335      0.3530
O                0.6748      0.4794     -0.1132
H               -0.4435     -0.4480      1.4095
C               -1.7741      0.4962     -0.0530
H               -1.7445      0.7093     -1.1143
H               -1.8181      1.4241      0.5006
H               -2.6741     -0.0638      0.1702
H               -0.8216     -1.6196     -1.1367
H                0.6520      1.8999      0.1486
H                2.3778     -0.0373      1.0258
C                2.0380     -0.1448      0.0098
H                1.8875     -1.1751     -0.2581
H                2.6699      0.3660     -0.6947
14
P19 HEAT OF FORMATION = -167377.67941 KCAL = -700307.71987 KJ
O               -0.4402     -1.5548     -0.2466
C               -0.5819     -0.3336      0.3521
O                0.6743      0.4775     -0.1182
H               -0.4410     -0.4467      1.4087
C               -1.7739      0.4941     -0.0537
H               -1.7453      0.7059     -1.1153
H               -1.8185      1.4227      0.4987
H               -2.6731     -0.0666      0.1709
H               -0.8223     -1.6226     -1.1350
H                0.6531      1.9235      0.1581
H                2.3733     -0.0418      1.0261
C                2.0367     -0.1466      0.0086
H                1.8878     -1.1766     -0.2618
H                2.6711      0.3656     -0.6924
14
P20 HEAT OF FORMATION = -167373.43057 KCAL = -700289.94274 KJ
O               -0.4401     -1.5569     -0.2459
C               -0.5802     -0.3339      0.3509
O                0.6739      0.4754     -0.1235
H               -0.4380     -0.4457      1.4075
C               -1.7737      0.4921     -0.0541
H               -1.7464      0.7030     -1.1158
H               -1.8186      1.4212      0.4974
H               -2.6720     -0.0693      0.1721
H               -0.8233     -1.6255     -1.1337
H                0.6536      1.9472      0.1650
H                2.3679     -0.0467      1.0269
C                2.0354     -0.1484      0.0079
H                1.8886     -1.1780     -0.2659
H                2.6728      0.3657     -0.6889
