24
P1 HEAT OF FORMATION = -287240.26056 KCAL = -1201812.40795 KJ
H                3.1373      0.1716      0.0338
C                2.6581      1.0878     -0.2748
H                2.5790      1.7586      0.5703
C                1.2921      0.7853     -0.9045
H                3.2850      1.5697     -1.0134
C                0.3145      0.0358     -0.0550
H                1.3955      0.2436     -1.8338
H                0.7770      1.7164     -1.1414
O                1.5870     -1.7751      0.2013
C                0.2026      0.2436      1.4129
H                0.0142     -0.6911      1.9189
H               -0.6484      0.8956      1.5702
H                1.0954      0.6907      1.8115
H                1.6655     -2.3779     -0.5514
H               -2.0430     -1.9973     -0.8084
C               -1.8693     -1.1088     -0.2289
H               -1.7800     -1.3328      0.8186
C               -2.9117     -0.0383     -0.4798
O               -0.5896     -0.5673     -0.7369
O               -2.4432      1.1127      0.2499
H               -3.8690     -0.3899     -0.1188
H               -2.9779      0.1668     -1.5386
H               -3.0547      1.8583      0.1904
H                2.1837     -2.0579      0.9078
24
P2 HEAT OF FORMATION = -287240.27368 KCAL = -1201812.46282 KJ
H                3.1301      0.1698      0.0395
C                2.6575      1.0873     -0.2745
H                2.5801      1.7625      0.5671
C                1.2914      0.7897     -0.9061
H                3.2889      1.5621     -1.0139
C                0.3098      0.0459     -0.0570
H                1.3940      0.2467     -1.8345
H                0.7811      1.7226     -1.1455
O                1.5957     -1.7886      0.2039
C                0.2013      0.2479      1.4113
H                0.0196     -0.6909      1.9129
H               -0.6529      0.8948      1.5741
H                1.0932      0.6976      1.8091
H                1.6768     -2.3919     -0.5481
H               -2.0413     -1.9946     -0.8102
C               -1.8701     -1.1064     -0.2296
H               -1.7793     -1.3310      0.8177
C               -2.9146     -0.0376     -0.4789
O               -0.5915     -0.5612     -0.7378
O               -2.4482      1.1129      0.2527
H               -3.8713     -0.3915     -0.1185
H               -2.9812      0.1693     -1.5374
H               -3.0592      1.8588      0.1920
H                2.1902     -2.0743      0.9115
24
P3 HEAT OF FORMATION = -287240.27540 KCAL = -1201812.47001 KJ
H                3.1230      0.1604      0.0419
C                2.6607      1.0824     -0.2740
H                2.5884      1.7596      0.5665
C                1.2924      0.7966     -0.9074
H                3.2975      1.5499     -1.0133
C                0.3059      0.0591     -0.0591
H                1.3915      0.2529     -1.8358
H                0.7898      1.7340     -1.1465
O                1.6006     -1.8023      0.2068
C                0.1988      0.2574      1.4094
H                0.0334     -0.6859      1.9084
H               -0.6647      0.8903      1.5766
H                1.0851      0.7189      1.8059
H                1.6821     -2.4027     -0.5476
H               -2.0353     -1.9920     -0.8119
C               -1.8686     -1.1036     -0.2305
H               -1.7757     -1.3286      0.8166
C               -2.9185     -0.0394     -0.4777
O               -0.5926     -0.5516     -0.7390
O               -2.4574      1.1121      0.2559
H               -3.8733     -0.3988     -0.1175
H               -2.9863      0.1688     -1.5359
H               -3.0707      1.8563      0.1951
H                2.1939     -2.0937      0.9130
24
P4 HEAT OF FORMATION = -287240.26737 KCAL = -1201812.43643 KJ
H                3.1168      0.1439      0.0384
C                2.6668      1.0729     -0.2744
H                2.6033      1.7483      0.5682
C                1.2944      0.8056     -0.9080
H                3.3087      1.5349     -1.0128
C                0.3022      0.0747     -0.0616
H                1.3865      0.2654     -1.8392
H                0.8021      1.7501     -1.1417
O                1.6025     -1.8155      0.2108
C                0.1949      0.2708      1.4069
H                0.0502     -0.6768      1.9042
H               -0.6802      0.8866      1.5774
H                1.0730      0.7490      1.8016
H                1.6844     -2.4130     -0.5458
H               -2.0264     -1.9894     -0.8148
C               -1.8655     -1.1009     -0.2318
H               -1.7693     -1.3270      0.8147
C               -2.9228     -0.0434     -0.4763
O               -0.5931     -0.5399     -0.7409
O               -2.4696      1.1092      0.2602
H               -3.8748     -0.4105     -0.1166
H               -2.9925      0.1669     -1.5340
H               -3.0872      1.8500      0.2003
H                2.1955     -2.1118      0.9153
24
P5 HEAT OF FORMATION = -287240.25143 KCAL = -1201812.36972 KJ
H                3.1113      0.1256      0.0288
C                2.6734      1.0627     -0.2763
H                2.6201      1.7329      0.5711
C                1.2961      0.8169     -0.9090
H                3.3191      1.5217     -1.0131
C                0.2990      0.0910     -0.0648
H                1.3797      0.2822     -1.8441
H                0.8148      1.7693     -1.1340
O                1.6027     -1.8291      0.2174
C                0.1911      0.2847      1.4037
H                0.0646     -0.6667      1.8991
H               -0.6944      0.8845      1.5772
H                1.0617      0.7773      1.7979
H                1.6848     -2.4263     -0.5393
H               -2.0163     -1.9865     -0.8192
C               -1.8612     -1.0983     -0.2342
H               -1.7614     -1.3262      0.8115
C               -2.9264     -0.0482     -0.4749
O               -0.5927     -0.5279     -0.7438
O               -2.4815      1.1055      0.2646
H               -3.8754     -0.4236     -0.1158
H               -2.9987      0.1647     -1.5319
H               -3.1044      1.8421      0.2070
H                2.1942     -2.1282      0.9219
24
P6 HEAT OF FORMATION = -287240.22925 KCAL = -1201812.27693 KJ
H                3.1058      0.1014      0.0137
C                2.6824      1.0488     -0.2792
H                2.6428      1.7101      0.5758
C                1.2984      0.8311     -0.9090
H                3.3319      1.5059     -1.0139
C                0.2962      0.1100     -0.0675
H                1.3704      0.3055     -1.8502
H                0.8312      1.7936     -1.1207
O                1.5989     -1.8425      0.2247
C                0.1868      0.3025      1.4009
H                0.0820     -0.6524      1.8951
H               -0.7109      0.8833      1.5766
H                1.0475      0.8130      1.7936
H                1.6775     -2.4392     -0.5327
H               -2.0018     -1.9846     -0.8225
C               -1.8548     -1.0960     -0.2362
H               -1.7513     -1.3245      0.8090
C               -2.9299     -0.0555     -0.4742
O               -0.5913     -0.5138     -0.7462
O               -2.4972      1.1001      0.2696
H               -3.8751     -0.4418     -0.1168
H               -3.0037      0.1599     -1.5306
H               -3.1270      1.8308      0.2140
H                2.1912     -2.1458      0.9267
24
P7 HEAT OF FORMATION = -287240.20372 KCAL = -1201812.17010 KJ
H                3.0994      0.0725     -0.0033
C                2.6932      1.0315     -0.2824
H                2.6696      1.6822      0.5813
C                1.3017      0.8473     -0.9089
H                3.3473      1.4862     -1.0144
C                0.2938      0.1311     -0.0705
H                1.3601      0.3332     -1.8574
H                0.8507      1.8214     -1.1035
O                1.5917     -1.8561      0.2328
C                0.1820      0.3246      1.3973
H                0.1027     -0.6330      1.8914
H               -0.7293      0.8832      1.5748
H                1.0309      0.8563      1.7881
H                1.6655     -2.4518     -0.5260
H               -1.9845     -1.9826     -0.8272
C               -1.8466     -1.0938     -0.2388
H               -1.7388     -1.3237      0.8057
C               -2.9335     -0.0649     -0.4733
O               -0.5891     -0.4979     -0.7491
O               -2.5156      1.0922      0.2765
H               -3.8745     -0.4643     -0.1190
H               -3.0086      0.1546     -1.5287
H               -3.1538      1.8158      0.2235
H                2.1860     -2.1640      0.9312
24
P8 HEAT OF FORMATION = -287240.17768 KCAL = -1201812.06114 KJ
H                3.0903      0.0411     -0.0250
C                2.7034      1.0124     -0.2867
H                2.6967      1.6488      0.5874
C                1.3045      0.8663     -0.9085
H                3.3625      1.4658     -1.0149
C                0.2914      0.1540     -0.0738
H                1.3481      0.3672     -1.8653
H                0.8721      1.8523     -1.0824
O                1.5814     -1.8694      0.2420
C                0.1776      0.3480      1.3936
H                0.1277     -0.6117      1.8880
H               -0.7482      0.8811      1.5742
H                1.0125      0.9034      1.7809
H                1.6499     -2.4639     -0.5182
H               -1.9651     -1.9811     -0.8312
C               -1.8368     -1.0921     -0.2411
H               -1.7246     -1.3226      0.8028
C               -2.9357     -0.0756     -0.4727
O               -0.5859     -0.4820     -0.7518
O               -2.5334      1.0831      0.2826
H               -3.8720     -0.4882     -0.1215
H               -3.0123      0.1475     -1.5272
H               -3.1802      1.7991      0.2315
H                2.1760     -2.1836      0.9374
24
P9 HEAT OF FORMATION = -287240.15844 KCAL = -1201811.98065 KJ
H                3.0814     -0.0120     -0.0709
C                2.7224      0.9791     -0.2950
H                2.7436      1.5839      0.6013
C                1.3120      0.8968     -0.9066
H                3.3869      1.4380     -1.0148
C                0.2918      0.1877     -0.0786
H                1.3309      0.4266     -1.8789
H                0.9100      1.9019     -1.0418
O                1.5523     -1.8837      0.2569
C                0.1706      0.3880      1.3873
H                0.1618     -0.5709      1.8860
H               -0.7758      0.8837      1.5663
H                0.9831      0.9796      1.7702
H                1.6084     -2.4773     -0.5051
H               -1.9287     -1.9801     -0.8381
C               -1.8170     -1.0905     -0.2454
H               -1.6968     -1.3223      0.7973
C               -2.9374     -0.0968     -0.4710
O               -0.5783     -0.4559     -0.7574
O               -2.5635      1.0646      0.2944
H               -3.8648     -0.5337     -0.1250
H               -3.0173      0.1325     -1.5240
H               -3.2257      1.7668      0.2469
H                2.1501     -2.2061      0.9459
24
P10 HEAT OF FORMATION = -287240.14926 KCAL = -1201811.94226 KJ
H                3.0679     -0.0685     -0.1288
C                2.7396      0.9423     -0.3061
H                2.7889      1.5054      0.6160
C                1.3187      0.9318     -0.9037
H                3.4098      1.4118     -1.0135
C                0.2918      0.2236     -0.0839
H                1.3111      0.4967     -1.8921
H                0.9516      1.9550     -0.9931
O                1.5190     -1.8960      0.2744
C                0.1637      0.4302      1.3806
H                0.1943     -0.5260      1.8840
H               -0.8005      0.8899      1.5590
H                0.9536      1.0554      1.7578
H                1.5620     -2.4902     -0.4880
H               -1.8890     -1.9800     -0.8447
C               -1.7945     -1.0899     -0.2497
H               -1.6655     -1.3223      0.7918
C               -2.9367     -0.1204     -0.4696
O               -0.5693     -0.4298     -0.7635
O               -2.5913      1.0438      0.3046
H               -3.8540     -0.5813     -0.1278
H               -3.0210      0.1141     -1.5211
H               -3.2689      1.7313      0.2600
H                2.1186     -2.2268      0.9578
24
P11 HEAT OF FORMATION = -287240.15172 KCAL = -1201811.95255 KJ
H                3.0500     -0.1136     -0.1733
C                2.7518      0.9117     -0.3159
H                2.8233      1.4417      0.6241
C                1.3249      0.9640     -0.9019
H                3.4302      1.3847     -1.0130
C                0.2919      0.2570     -0.0894
H                1.2968      0.5588     -1.9024
H                0.9897      2.0006     -0.9536
O                1.4863     -1.9093      0.2907
C                0.1594      0.4673      1.3741
H                0.2212     -0.4861      1.8799
H               -0.8178      0.8980      1.5534
H                0.9311      1.1179      1.7470
H                1.5193     -2.5030     -0.4726
H               -1.8523     -1.9787     -0.8528
C               -1.7732     -1.0892     -0.2546
H               -1.6357     -1.3232      0.7854
C               -2.9348     -0.1416     -0.4677
O               -0.5607     -0.4054     -0.7696
O               -2.6146      1.0242      0.3150
H               -3.8425     -0.6242     -0.1297
H               -3.0238      0.0986     -1.5177
H               -3.3061      1.6983      0.2744
H                2.0856     -2.2487      0.9704
24
P12 HEAT OF FORMATION = -287240.16750 KCAL = -1201812.01856 KJ
H                3.0258     -0.1622     -0.2270
C                2.7621      0.8774     -0.3285
H                2.8573      1.3671      0.6311
C                1.3311      1.0012     -0.8993
H                3.4500      1.3543     -1.0132
C                0.2921      0.2942     -0.0954
H                1.2813      0.6315     -1.9123
H                1.0334      2.0495     -0.9075
O                1.4465     -1.9207      0.3091
C                0.1549      0.5074      1.3670
H                0.2482     -0.4422      1.8756
H               -0.8347      0.9080      1.5481
H                0.9076      1.1833      1.7345
H                1.4745     -2.5125     -0.4559
H               -1.8100     -1.9768     -0.8618
C               -1.7477     -1.0885     -0.2600
H               -1.6000     -1.3241      0.7781
C               -2.9301     -0.1658     -0.4654
O               -0.5505     -0.3787     -0.7766
O               -2.6366      1.0010      0.3258
H               -3.8261     -0.6717     -0.1307
H               -3.0256      0.0797     -1.5136
H               -3.3426      1.6599      0.2887
H                2.0390     -2.2715      0.9890
24
P13 HEAT OF FORMATION = -287240.18909 KCAL = -1201812.10890 KJ
H                3.0043     -0.1864     -0.2525
C                2.7633      0.8599     -0.3359
H                2.8711      1.3299      0.6321
C                1.3323      1.0252     -0.8988
H                3.4586      1.3341     -1.0148
C                0.2901      0.3184     -0.1000
H                1.2715      0.6757     -1.9184
H                1.0567      2.0789     -0.8833
O                1.4260     -1.9340      0.3221
C                0.1533      0.5287      1.3626
H                0.2667     -0.4208      1.8686
H               -0.8426      0.9110      1.5491
H                0.8952      1.2182      1.7276
H                1.4552     -2.5249     -0.4434
H               -1.7867     -1.9746     -0.8681
C               -1.7333     -1.0877     -0.2636
H               -1.5799     -1.3249      0.7732
C               -2.9259     -0.1778     -0.4643
O               -0.5444     -0.3636     -0.7808
O               -2.6447      0.9896      0.3299
H               -3.8152     -0.6949     -0.1294
H               -3.0261      0.0696     -1.5115
H               -3.3574      1.6410      0.2950
H                2.0120     -2.2905      1.0046
24
P14 HEAT OF FORMATION = -287240.21947 KCAL = -1201812.23603 KJ
H                2.9809     -0.2190     -0.2875
C                2.7686      0.8357     -0.3456
H                2.8930      1.2794      0.6331
C                1.3376      1.0551     -0.8972
H                3.4731      1.3070     -1.0169
C                0.2906      0.3487     -0.1049
H                1.2628      0.7310     -1.9241
H                1.0914      2.1152     -0.8515
O                1.3931     -1.9476      0.3364
C                0.1508      0.5603      1.3570
H                0.2830     -0.3860      1.8638
H               -0.8518      0.9232      1.5443
H                0.8805      1.2638      1.7198
H                1.4202     -2.5359     -0.4314
H               -1.7519     -1.9717     -0.8763
C               -1.7119     -1.0863     -0.2683
H               -1.5499     -1.3252      0.7667
C               -2.9210     -0.1965     -0.4621
O               -0.5358     -0.3411     -0.7865
O               -2.6612      0.9711      0.3397
H               -3.8008     -0.7325     -0.1304
H               -3.0266      0.0559     -1.5077
H               -3.3862      1.6095      0.3092
H                1.9714     -2.3142      1.0204
24
P15 HEAT OF FORMATION = -287240.25128 KCAL = -1201812.36909 KJ
H                2.9561     -0.2403     -0.3100
C                2.7682      0.8193     -0.3537
H                2.9047      1.2461      0.6303
C                1.3395      1.0798     -0.8960
H                3.4807      1.2834     -1.0213
C                0.2893      0.3733     -0.1090
H                1.2552      0.7751     -1.9278
H                1.1162      2.1426     -0.8281
O                1.3688     -1.9615      0.3484
C                0.1495      0.5818      1.3531
H                0.2988     -0.3636      1.8574
H               -0.8581      0.9281      1.5450
H                0.8694      1.2961      1.7141
H                1.4010     -2.5471     -0.4212
H               -1.7263     -1.9685     -0.8829
C               -1.6957     -1.0849     -0.2720
H               -1.5273     -1.3253      0.7614
C               -2.9152     -0.2093     -0.4607
O               -0.5291     -0.3247     -0.7906
O               -2.6686      0.9582      0.3449
H               -3.7876     -0.7570     -0.1297
H               -3.0256      0.0455     -1.5052
H               -3.4006      1.5883      0.3166
H                1.9366     -2.3356      1.0370
24
P16 HEAT OF FORMATION = -287240.28412 KCAL = -1201812.50651 KJ
H                2.9331     -0.2617     -0.3333
C                2.7687      0.8027     -0.3619
H                2.9179      1.2118      0.6283
C                1.3427      1.1038     -0.8946
H                3.4885      1.2608     -1.0258
C                0.2892      0.3972     -0.1127
H                1.2493      0.8186     -1.9311
H                1.1423      2.1692     -0.8043
O                1.3433     -1.9767      0.3600
C                0.1479      0.6050      1.3493
H                0.3138     -0.3382      1.8530
H               -0.8650      0.9345      1.5435
H                0.8575      1.3312      1.7084
H                1.3793     -2.5584     -0.4124
H               -1.6997     -1.9648     -0.8900
C               -1.6789     -1.0831     -0.2759
H               -1.5040     -1.3256      0.7558
C               -2.9100     -0.2226     -0.4589
O               -0.5222     -0.3072     -0.7948
O               -2.6777      0.9446      0.3511
H               -3.7744     -0.7833     -0.1286
H               -3.0259      0.0349     -1.5022
H               -3.4173      1.5658      0.3251
H                1.9012     -2.3589      1.0523
24
P17 HEAT OF FORMATION = -287240.31388 KCAL = -1201812.63101 KJ
H                2.9122     -0.2753     -0.3453
C                2.7670      0.7919     -0.3679
H                2.9256      1.1924      0.6240
C                1.3438      1.1229     -0.8942
H                3.4928      1.2409     -1.0315
C                0.2879      0.4169     -0.1158
H                1.2440      0.8511     -1.9336
H                1.1604      2.1895     -0.7891
O                1.3262     -1.9919      0.3696
C                0.1473      0.6211      1.3465
H                0.3266     -0.3218      1.8469
H               -0.8688      0.9377      1.5450
H                0.8495      1.3549      1.7051
H                1.3674     -2.5714     -0.4041
H               -1.6803     -1.9613     -0.8957
C               -1.6666     -1.0813     -0.2791
H               -1.4873     -1.3253      0.7514
C               -2.9052     -0.2310     -0.4583
O               -0.5168     -0.2942     -0.7977
O               -2.6831      0.9358      0.3555
H               -3.7644     -0.8007     -0.1293
H               -3.0242      0.0291     -1.5006
H               -3.4284      1.5504      0.3322
H                1.8745     -2.3803      1.0662
24
P18 HEAT OF FORMATION = -287240.33959 KCAL = -1201812.73857 KJ
H                2.8903     -0.2895     -0.3581
C                2.7651      0.7807     -0.3746
H                2.9343      1.1725      0.6191
C                1.3451      1.1428     -0.8932
H                3.4967      1.2195     -1.0385
C                0.2870      0.4366     -0.1186
H                1.2388      0.8853     -1.9358
H                1.1792      2.2102     -0.7721
O                1.3076     -2.0075      0.3795
C                0.1466      0.6380      1.3440
H                0.3394     -0.3040      1.8417
H               -0.8729      0.9411      1.5461
H                0.8410      1.3797      1.7018
H                1.3549     -2.5837     -0.3964
H               -1.6598     -1.9575     -0.9016
C               -1.6536     -1.0793     -0.2823
H               -1.4696     -1.3249      0.7468
C               -2.9001     -0.2400     -0.4577
O               -0.5111     -0.2806     -0.8005
O               -2.6886      0.9261      0.3600
H               -3.7537     -0.8190     -0.1301
H               -3.0223      0.0224     -1.4990
H               -3.4396      1.5341      0.3389
H                1.8452     -2.4028      1.0806
24
P19 HEAT OF FORMATION = -287240.35961 KCAL = -1201812.82235 KJ
H                2.8700     -0.2991     -0.3640
C                2.7620      0.7731     -0.3797
H                2.9404      1.1610      0.6140
C                1.3453      1.1593     -0.8927
H                3.4979      1.2010     -1.0460
C                0.2854      0.4533     -0.1210
H                1.2344      0.9125     -1.9371
H                1.1936      2.2269     -0.7601
O                1.2944     -2.0236      0.3877
C                0.1463      0.6506      1.3421
H                0.3520     -0.2909      1.8360
H               -0.8757      0.9413      1.5489
H                0.8336      1.3991      1.6995
H                1.3488     -2.5971     -0.3897
H               -1.6441     -1.9538     -0.9068
C               -1.6437     -1.0773     -0.2851
H               -1.4562     -1.3245      0.7429
C               -2.8958     -0.2460     -0.4574
O               -0.5067     -0.2696     -0.8026
O               -2.6913      0.9195      0.3627
H               -3.7449     -0.8317     -0.1301
H               -3.0211      0.0178     -1.4979
H               -3.4460      1.5227      0.3430
H                1.8215     -2.4244      1.0935
24
P20 HEAT OF FORMATION = -287240.37207 KCAL = -1201812.87447 KJ
H                2.8499     -0.3072     -0.3678
C                2.7583      0.7667     -0.3843
H                2.9456      1.1528      0.6083
C                1.3450      1.1751     -0.8921
H                3.4982      1.1826     -1.0538
C                0.2839      0.4689     -0.1230
H                1.2300      0.9382     -1.9383
H                1.2057      2.2424     -0.7489
O                1.2824     -2.0404      0.3955
C                0.1464      0.6623      1.3407
H                0.3641     -0.2787      1.8308
H               -0.8778      0.9414      1.5518
H                0.8272      1.4168      1.6979
H                1.3437     -2.6104     -0.3841
H               -1.6295     -1.9504     -0.9111
C               -1.6344     -1.0754     -0.2875
H               -1.4438     -1.3237      0.7395
C               -2.8915     -0.2515     -0.4574
O               -0.5025     -0.2594     -0.8042
O               -2.6932      0.9136      0.3646
H               -3.7367     -0.8426     -0.1304
H               -3.0196      0.0134     -1.4973
H               -3.4507      1.5129      0.3457
H                1.7991     -2.4473      1.1056
