13
P1 HEAT OF FORMATION = -1819659.26513 KCAL = -7613449.02966 KJ
C               -1.6326     -0.5212      0.5803
C               -0.5739     -1.1151     -0.3241
C                0.6314     -0.1808     -0.4899
H               -0.9457     -1.3722     -1.3010
O                1.5429     -0.4552     -1.2399
O                0.4754      0.8882      0.2314
Br               0.0526     -2.8795      0.4013
H               -1.1969     -0.3120      1.5435
H               -2.4910     -1.1729      0.6785
H               -1.9219      0.4330      0.1624
H                1.1229      1.6141      0.1825
O                2.1228      2.7444      0.0738
H                2.8139      2.3293     -0.4988
13
P2 HEAT OF FORMATION = -1819663.86026 KCAL = -7613468.25567 KJ
C               -1.6349     -0.5244      0.5808
C               -0.5759     -1.1160     -0.3245
C                0.6325     -0.1814     -0.4815
H               -0.9462     -1.3668     -1.3039
O                1.5488     -0.4606     -1.2258
O                0.4735      0.8873      0.2346
Br               0.0437     -2.8870      0.3923
H               -1.1984     -0.3164      1.5440
H               -2.4937     -1.1755      0.6782
H               -1.9234      0.4308      0.1644
H                1.1445      1.6426      0.1823
O                2.1218      2.7411      0.0675
H                2.8077      2.3262     -0.5082
13
P3 HEAT OF FORMATION = -1819667.71932 KCAL = -7613484.40197 KJ
C               -1.6371     -0.5279      0.5817
C               -0.5783     -1.1173     -0.3251
C                0.6316     -0.1809     -0.4765
H               -0.9484     -1.3640     -1.3057
O                1.5528     -0.4653     -1.2150
O                0.4687      0.8892      0.2319
Br               0.0382     -2.8925      0.3853
H               -1.1983     -0.3186      1.5437
H               -2.4952     -1.1799      0.6811
H               -1.9273      0.4270      0.1657
H                1.1643      1.6727      0.1782
O                2.1228      2.7369      0.0646
H                2.8062      2.3205     -0.5098
13
P4 HEAT OF FORMATION = -1819671.12281 KCAL = -7613498.64216 KJ
C               -1.6390     -0.5315      0.5831
C               -0.5813     -1.1188     -0.3261
C                0.6295     -0.1796     -0.4738
H               -0.9521     -1.3629     -1.3071
O                1.5560     -0.4702     -1.2058
O                0.4616      0.8932      0.2243
Br               0.0348     -2.8970      0.3789
H               -1.1969     -0.3190      1.5427
H               -2.4953     -1.1853      0.6869
H               -1.9328      0.4220      0.1664
H                1.1834      1.7039      0.1720
O                2.1243      2.7329      0.0632
H                2.8078      2.3123     -0.5048
13
P5 HEAT OF FORMATION = -1819674.27184 KCAL = -7613511.81770 KJ
C               -1.6413     -0.5345      0.5832
C               -0.5836     -1.1210     -0.3265
C                0.6275     -0.1787     -0.4715
H               -0.9538     -1.3643     -1.3079
O                1.5557     -0.4725     -1.2025
O                0.4582      0.8935      0.2220
Br               0.0318     -2.9005      0.3776
H               -1.1979     -0.3205      1.5419
H               -2.4973     -1.1884      0.6887
H               -1.9356      0.4187      0.1662
H                1.2050      1.7323      0.1701
O                2.1270      2.7274      0.0662
H                2.8042      2.3084     -0.5075
13
P6 HEAT OF FORMATION = -1819677.30780 KCAL = -7613524.52013 KJ
C               -1.6441     -0.5383      0.5837
C               -0.5861     -1.1221     -0.3270
C                0.6246     -0.1756     -0.4685
H               -0.9556     -1.3649     -1.3088
O                1.5554     -0.4725     -1.1977
O                0.4530      0.8958      0.2205
Br               0.0316     -2.9029      0.3745
H               -1.1990     -0.3228      1.5413
H               -2.4992     -1.1932      0.6908
H               -1.9395      0.4144      0.1666
H                1.2251      1.7624      0.1681
O                2.1280      2.7225      0.0610
H                2.8058      2.2973     -0.5045
13
P7 HEAT OF FORMATION = -1819680.30805 KCAL = -7613537.07317 KJ
C               -1.6471     -0.5420      0.5833
C               -0.5876     -1.1231     -0.3271
C                0.6225     -0.1722     -0.4639
H               -0.9550     -1.3655     -1.3099
O                1.5539     -0.4692     -1.1947
O                0.4505      0.8956      0.2253
Br               0.0312     -2.9049      0.3731
H               -1.2023     -0.3271      1.5412
H               -2.5025     -1.1967      0.6890
H               -1.9413      0.4116      0.1670
H                1.2463      1.7913      0.1696
O                2.1289      2.7170      0.0551
H                2.8025      2.2852     -0.5078
13
P8 HEAT OF FORMATION = -1819683.30749 KCAL = -7613549.62280 KJ
C               -1.6499     -0.5460      0.5835
C               -0.5893     -1.1238     -0.3276
C                0.6203     -0.1683     -0.4593
H               -0.9555     -1.3642     -1.3113
O                1.5554     -0.4676     -1.1871
O                0.4442      0.8989      0.2248
Br               0.0306     -2.9076      0.3689
H               -1.2041     -0.3299      1.5407
H               -2.5041     -1.2024      0.6902
H               -1.9460      0.4071      0.1676
H                1.2664      1.8214      0.1683
O                2.1320      2.7101      0.0518
H                2.8000      2.2724     -0.5105
13
P9 HEAT OF FORMATION = -1819686.29594 KCAL = -7613562.12648 KJ
C               -1.6533     -0.5506      0.5834
C               -0.5903     -1.1236     -0.3279
C                0.6177     -0.1622     -0.4538
H               -0.9544     -1.3625     -1.3127
O                1.5562     -0.4616     -1.1797
O                0.4372      0.9030      0.2276
Br               0.0325     -2.9086      0.3652
H               -1.2076     -0.3338      1.5405
H               -2.5060     -1.2090      0.6896
H               -1.9512      0.4024      0.1685
H                1.2861      1.8519      0.1686
O                2.1359      2.7014      0.0453
H                2.7972      2.2534     -0.5146
13
P10 HEAT OF FORMATION = -1819689.22334 KCAL = -7613574.37470 KJ
C               -1.6575     -0.5559      0.5825
C               -0.5902     -1.1222     -0.3278
C                0.6140     -0.1526     -0.4469
H               -0.9506     -1.3612     -1.3140
O                1.5555     -0.4476     -1.1732
O                0.4288      0.9082      0.2356
Br               0.0388     -2.9064      0.3636
H               -1.2142     -0.3391      1.5407
H               -2.5085     -1.2171      0.6858
H               -1.9572      0.3972      0.1689
H                1.3066      1.8813      0.1711
O                2.1432      2.6881      0.0382
H                2.7914      2.2273     -0.5243
13
P11 HEAT OF FORMATION = -1819692.00208 KCAL = -7613586.00094 KJ
C               -1.6630     -0.5622      0.5810
C               -0.5888     -1.1186     -0.3272
C                0.6095     -0.1384     -0.4370
H               -0.9435     -1.3575     -1.3156
O                1.5552     -0.4255     -1.1635
O                0.4170      0.9166      0.2483
Br               0.0494     -2.9014      0.3616
H               -1.2238     -0.3462      1.5413
H               -2.5109     -1.2281      0.6790
H               -1.9654      0.3910      0.1695
H                1.3278      1.9100      0.1755
O                2.1542      2.6691      0.0281
H                2.7822      2.1912     -0.5412
13
P12 HEAT OF FORMATION = -1819694.51877 KCAL = -7613596.53077 KJ
C               -1.6709     -0.5718      0.5780
C               -0.5830     -1.1080     -0.3256
C                0.6025     -0.1091     -0.4179
H               -0.9260     -1.3455     -1.3183
O                1.5566     -0.3789     -1.1432
O                0.3942      0.9364      0.2735
Br               0.0742     -2.8867      0.3576
H               -1.2411     -0.3571      1.5428
H               -2.5120     -1.2479      0.6651
H               -1.9805      0.3810      0.1710
H                1.3493      1.9387      0.1846
O                2.1762      2.6317      0.0071
H                2.7606      2.1173     -0.5746
13
P13 HEAT OF FORMATION = -1819696.58372 KCAL = -7613605.17051 KJ
C               -1.6775     -0.5802      0.5753
C               -0.5779     -1.0989     -0.3244
C                0.5960     -0.0836     -0.4020
H               -0.9112     -1.3355     -1.3205
O                1.5567     -0.3382     -1.1272
O                0.3745      0.9528      0.2949
Br               0.0962     -2.8736      0.3547
H               -1.2556     -0.3668      1.5439
H               -2.5123     -1.2650      0.6530
H               -1.9933      0.3722      0.1722
H                1.3719      1.9649      0.1896
O                2.1917      2.5983     -0.0114
H                2.7410      2.0535     -0.5981
13
P14 HEAT OF FORMATION = -1819697.96838 KCAL = -7613610.96393 KJ
C               -1.6826     -0.5877      0.5730
C               -0.5730     -1.0904     -0.3235
C                0.5911     -0.0613     -0.3865
H               -0.8978     -1.3242     -1.3230
O                1.5589     -0.3028     -1.1095
O                0.3570      0.9672      0.3147
Br               0.1145     -2.8628      0.3493
H               -1.2678     -0.3762      1.5451
H               -2.5118     -1.2803      0.6420
H               -2.0042      0.3644      0.1740
H                1.3935      1.9913      0.1901
O                2.2016      2.5684     -0.0305
H                2.7207      1.9942     -0.6152
13
P15 HEAT OF FORMATION = -1819698.36007 KCAL = -7613612.60277 KJ
C               -1.6864     -0.5943      0.5711
C               -0.5688     -1.0832     -0.3229
C                0.5883     -0.0442     -0.3714
H               -0.8864     -1.3121     -1.3260
O                1.5636     -0.2776     -1.0899
O                0.3429      0.9785      0.3309
Br               0.1267     -2.8560      0.3415
H               -1.2771     -0.3845      1.5459
H               -2.5110     -1.2932      0.6328
H               -2.0129      0.3579      0.1758
H                1.4157      2.0171      0.1888
O                2.2063      2.5442     -0.0470
H                2.6993      1.9473     -0.6296
