12
P15 HEAT OF FORMATION = -87.44726 KCAL = -365.87906 KJ
C               -1.3623      0.7810      0.2032
C               -0.3896     -0.3179     -0.2079
C                1.0725      0.1706     -0.1454
H               -0.5876     -0.6275     -1.2644
O                1.4747      1.3129     -0.0000
O                1.9790     -0.7904     -0.3078
H               -1.2472      1.6629     -0.4395
H               -1.2048      1.1034      1.2410
H               -2.4015      0.4365      0.1199
O               -0.6052     -1.4041      0.6654
H               -0.0819     -2.1296      0.3516
H                3.3540     -0.1979     -0.2160
12
P14 HEAT OF FORMATION = -91.27735 KCAL = -381.90416 KJ
C               -1.3615      0.7819      0.2024
C               -0.3861     -0.3154     -0.2067
C                1.0748      0.1762     -0.1430
H               -0.5826     -0.6262     -1.2631
O                1.4758      1.3177      0.0077
O                1.9813     -0.7868     -0.3119
H               -1.2472      1.6638     -0.4405
H               -1.2060      1.1050      1.2403
H               -2.3998      0.4354      0.1178
O               -0.6001     -1.4011      0.6674
H               -0.0770     -2.1266      0.3533
H                3.3283     -0.2237     -0.2235
12
P13 HEAT OF FORMATION = -95.13154 KCAL = -398.03007 KJ
C               -1.3605      0.7829      0.2012
C               -0.3825     -0.3129     -0.2057
C                1.0772      0.1816     -0.1406
H               -0.5778     -0.6254     -1.2618
O                1.4770      1.3216      0.0193
O                1.9834     -0.7828     -0.3202
H               -1.2478      1.6641     -0.4429
H               -1.2065      1.1078      1.2387
H               -2.3981      0.4340      0.1165
O               -0.5950     -1.3981      0.6696
H               -0.0712     -2.1233      0.3559
H                3.3020     -0.2495     -0.2301
12
P12 HEAT OF FORMATION = -99.07456 KCAL = -414.52768 KJ
C               -1.3596      0.7839      0.1994
C               -0.3787     -0.3106     -0.2039
C                1.0798      0.1867     -0.1366
H               -0.5720     -0.6254     -1.2598
O                1.4784      1.3248      0.0353
O                1.9855     -0.7786     -0.3297
H               -1.2477      1.6642     -0.4461
H               -1.2080      1.1111      1.2366
H               -2.3963      0.4327      0.1136
O               -0.5899     -1.3947      0.6732
H               -0.0669     -2.1202      0.3592
H                3.2753     -0.2739     -0.2413
12
P11 HEAT OF FORMATION = -103.16176 KCAL = -431.62851 KJ
C               -1.3583      0.7849      0.1979
C               -0.3749     -0.3085     -0.2024
C                1.0825      0.1916     -0.1333
H               -0.5667     -0.6255     -1.2579
O                1.4791      1.3282      0.0495
O                1.9879     -0.7745     -0.3389
H               -1.2475      1.6641     -0.4493
H               -1.2082      1.1144      1.2346
H               -2.3942      0.4316      0.1119
O               -0.5847     -1.3915      0.6764
H               -0.0632     -2.1177      0.3615
H                3.2482     -0.2972     -0.2500
12
P10 HEAT OF FORMATION = -107.43040 KCAL = -449.48850 KJ
C               -1.3577      0.7861      0.1945
C               -0.3709     -0.3062     -0.2001
C                1.0854      0.1961     -0.1269
H               -0.5598     -0.6267     -1.2550
O                1.4818      1.3283      0.0787
O                1.9891     -0.7689     -0.3577
H               -1.2479      1.6631     -0.4559
H               -1.2103      1.1200      1.2302
H               -2.3926      0.4299      0.1080
O               -0.5802     -1.3874      0.6814
H               -0.0569     -2.1134      0.3689
H                3.2202     -0.3211     -0.2660
12
P09 HEAT OF FORMATION = -111.88869 KCAL = -468.14197 KJ
C               -1.3565      0.7871      0.1934
C               -0.3673     -0.3039     -0.1990
C                1.0880      0.2008     -0.1239
H               -0.5546     -0.6256     -1.2539
O                1.4829      1.3316      0.0892
O                1.9911     -0.7657     -0.3634
H               -1.2477      1.6635     -0.4578
H               -1.2106      1.1224      1.2289
H               -2.3906      0.4289      0.1064
O               -0.5758     -1.3848      0.6832
H               -0.0509     -2.1101      0.3717
H                3.1920     -0.3440     -0.2746
12
P08 HEAT OF FORMATION = -116.51037 KCAL = -487.47904 KJ
C               -1.3549      0.7878      0.1933
C               -0.3635     -0.3016     -0.1981
C                1.0908      0.2057     -0.1226
H               -0.5499     -0.6242     -1.2528
O                1.4835      1.3366      0.0923
O                1.9936     -0.7632     -0.3653
H               -1.2468      1.6644     -0.4577
H               -1.2108      1.1233      1.2290
H               -2.3883      0.4280      0.1050
O               -0.5704     -1.3824      0.6847
H               -0.0468     -2.1080      0.3718
H                3.1636     -0.3663     -0.2798
12
P07 HEAT OF FORMATION = -121.22875 KCAL = -507.22075 KJ
C               -1.3536      0.7889      0.1906
C               -0.3595     -0.2997     -0.1959
C                1.0939      0.2096     -0.1170
H               -0.5435     -0.6253     -1.2502
O                1.4853      1.3370      0.1161
O                1.9952     -0.7582     -0.3799
H               -1.2465      1.6635     -0.4634
H               -1.2115      1.1283      1.2252
H               -2.3862      0.4267      0.1022
O               -0.5659     -1.3788      0.6891
H               -0.0421     -2.1047      0.3772
H                3.1344     -0.3873     -0.2940
12
P06 HEAT OF FORMATION = -125.93580 KCAL = -526.91504 KJ
C               -1.3520      0.7898      0.1892
C               -0.3556     -0.2977     -0.1944
C                1.0970      0.2138     -0.1134
H               -0.5378     -0.6248     -1.2485
O                1.4865      1.3396      0.1286
O                1.9973     -0.7549     -0.3863
H               -1.2457      1.6635     -0.4660
H               -1.2119      1.1310      1.2235
H               -2.3839      0.4256      0.1002
O               -0.5612     -1.3761      0.6917
H               -0.0377     -2.1021      0.3798
H                3.1051     -0.4078     -0.3046
12
P05 HEAT OF FORMATION = -130.48071 KCAL = -545.93089 KJ
C               -1.3503      0.7906      0.1887
C               -0.3520     -0.2956     -0.1937
C                1.0999      0.2180     -0.1114
H               -0.5331     -0.6235     -1.2477
O                1.4872      1.3432      0.1356
O                1.9994     -0.7522     -0.3908
H               -1.2452      1.6640     -0.4672
H               -1.2111      1.1329      1.2228
H               -2.3815      0.4246      0.0996
O               -0.5565     -1.3738      0.6930
H               -0.0319     -2.0993      0.3814
H                3.0754     -0.4288     -0.3103
12
P04 HEAT OF FORMATION = -134.67313 KCAL = -563.47198 KJ
C               -1.3485      0.7913      0.1886
C               -0.3484     -0.2935     -0.1930
C                1.1028      0.2221     -0.1099
H               -0.5285     -0.6218     -1.2471
O                1.4876      1.3475      0.1388
O                2.0018     -0.7504     -0.3920
H               -1.2442      1.6648     -0.4672
H               -1.2106      1.1338      1.2228
H               -2.3791      0.4238      0.0987
O               -0.5520     -1.3719      0.6937
H               -0.0265     -2.0968      0.3823
H                3.0456     -0.4490     -0.3158
12
P03 HEAT OF FORMATION = -138.28619 KCAL = -578.58902 KJ
C               -1.3466      0.7920      0.1887
C               -0.3448     -0.2915     -0.1923
C                1.1057      0.2261     -0.1089
H               -0.5241     -0.6203     -1.2464
O                1.4880      1.3521      0.1405
O                2.0042     -0.7488     -0.3931
H               -1.2421      1.6663     -0.4660
H               -1.2109      1.1335      1.2235
H               -2.3767      0.4236      0.0966
O               -0.5475     -1.3700      0.6945
H               -0.0207     -2.0942      0.3836
H                3.0154     -0.4688     -0.3208
12
P02 HEAT OF FORMATION = -141.06262 KCAL = -590.20558 KJ
C               -1.3446      0.7926      0.1891
C               -0.3412     -0.2893     -0.1922
C                1.1086      0.2301     -0.1081
H               -0.5199     -0.6178     -1.2465
O                1.4882      1.3570      0.1406
O                2.0069     -0.7476     -0.3922
H               -1.2419      1.6669     -0.4659
H               -1.2088      1.1347      1.2238
H               -2.3742      0.4225      0.0978
O               -0.5431     -1.3687      0.6939
H               -0.0151     -2.0920      0.3830
H                2.9851     -0.4884     -0.3232
12
P01 HEAT OF FORMATION = -142.71743 KCAL = -597.12932 KJ
C               -1.3425      0.7933      0.1896
C               -0.3377     -0.2872     -0.1922
C                1.1115      0.2339     -0.1073
H               -0.5155     -0.6150     -1.2469
O                1.4885      1.3618      0.1403
O                2.0097     -0.7467     -0.3898
H               -1.2428      1.6670     -0.4667
H               -1.2055      1.1368      1.2236
H               -2.3716      0.4211      0.1007
O               -0.5390     -1.3676      0.6927
H               -0.0099     -2.0899      0.3812
H                2.9547     -0.5075     -0.3252
